
---------- Begin Simulation Statistics ----------
sim_seconds                                  3.235572                       # Number of seconds simulated
sim_ticks                                3235572441000                       # Number of ticks simulated
final_tick                               3235572441000                       # Number of ticks from beginning of simulation (restored from checkpoints and never reset)
sim_freq                                 1000000000000                       # Frequency of simulated ticks
host_inst_rate                                1498063                       # Simulator instruction rate (inst/s)
host_op_rate                                  1704694                       # Simulator op (including micro ops) rate (op/s)
host_tick_rate                             2576064483                       # Simulator tick rate (ticks/s)
host_mem_usage                                 879716                       # Number of bytes of host memory used
host_seconds                                  1256.01                       # Real time elapsed on the host
sim_insts                                  1881587990                       # Number of instructions simulated
sim_ops                                    2141119040                       # Number of ops (including micro ops) simulated
system.voltage_domain.voltage                       1                       # Voltage in Volts
system.clk_domain.clock                          1000                       # Clock period in ticks
system.realview.nvmem.bytes_read::cpu0.inst           20                       # Number of bytes read from this memory
system.realview.nvmem.bytes_read::cpu1.inst           48                       # Number of bytes read from this memory
system.realview.nvmem.bytes_read::cpu2.inst           48                       # Number of bytes read from this memory
system.realview.nvmem.bytes_read::cpu3.inst           48                       # Number of bytes read from this memory
system.realview.nvmem.bytes_read::cpu4.inst           48                       # Number of bytes read from this memory
system.realview.nvmem.bytes_read::cpu5.inst           48                       # Number of bytes read from this memory
system.realview.nvmem.bytes_read::cpu6.inst           48                       # Number of bytes read from this memory
system.realview.nvmem.bytes_read::cpu7.inst           48                       # Number of bytes read from this memory
system.realview.nvmem.bytes_read::total           356                       # Number of bytes read from this memory
system.realview.nvmem.bytes_inst_read::cpu0.inst           20                       # Number of instructions bytes read from this memory
system.realview.nvmem.bytes_inst_read::cpu1.inst           48                       # Number of instructions bytes read from this memory
system.realview.nvmem.bytes_inst_read::cpu2.inst           48                       # Number of instructions bytes read from this memory
system.realview.nvmem.bytes_inst_read::cpu3.inst           48                       # Number of instructions bytes read from this memory
system.realview.nvmem.bytes_inst_read::cpu4.inst           48                       # Number of instructions bytes read from this memory
system.realview.nvmem.bytes_inst_read::cpu5.inst           48                       # Number of instructions bytes read from this memory
system.realview.nvmem.bytes_inst_read::cpu6.inst           48                       # Number of instructions bytes read from this memory
system.realview.nvmem.bytes_inst_read::cpu7.inst           48                       # Number of instructions bytes read from this memory
system.realview.nvmem.bytes_inst_read::total          356                       # Number of instructions bytes read from this memory
system.realview.nvmem.num_reads::cpu0.inst            5                       # Number of read requests responded to by this memory
system.realview.nvmem.num_reads::cpu1.inst           12                       # Number of read requests responded to by this memory
system.realview.nvmem.num_reads::cpu2.inst           12                       # Number of read requests responded to by this memory
system.realview.nvmem.num_reads::cpu3.inst           12                       # Number of read requests responded to by this memory
system.realview.nvmem.num_reads::cpu4.inst           12                       # Number of read requests responded to by this memory
system.realview.nvmem.num_reads::cpu5.inst           12                       # Number of read requests responded to by this memory
system.realview.nvmem.num_reads::cpu6.inst           12                       # Number of read requests responded to by this memory
system.realview.nvmem.num_reads::cpu7.inst           12                       # Number of read requests responded to by this memory
system.realview.nvmem.num_reads::total             89                       # Number of read requests responded to by this memory
system.realview.nvmem.bw_read::cpu0.inst            6                       # Total read bandwidth from this memory (bytes/s)
system.realview.nvmem.bw_read::cpu1.inst           15                       # Total read bandwidth from this memory (bytes/s)
system.realview.nvmem.bw_read::cpu2.inst           15                       # Total read bandwidth from this memory (bytes/s)
system.realview.nvmem.bw_read::cpu3.inst           15                       # Total read bandwidth from this memory (bytes/s)
system.realview.nvmem.bw_read::cpu4.inst           15                       # Total read bandwidth from this memory (bytes/s)
system.realview.nvmem.bw_read::cpu5.inst           15                       # Total read bandwidth from this memory (bytes/s)
system.realview.nvmem.bw_read::cpu6.inst           15                       # Total read bandwidth from this memory (bytes/s)
system.realview.nvmem.bw_read::cpu7.inst           15                       # Total read bandwidth from this memory (bytes/s)
system.realview.nvmem.bw_read::total              110                       # Total read bandwidth from this memory (bytes/s)
system.realview.nvmem.bw_inst_read::cpu0.inst            6                       # Instruction read bandwidth from this memory (bytes/s)
system.realview.nvmem.bw_inst_read::cpu1.inst           15                       # Instruction read bandwidth from this memory (bytes/s)
system.realview.nvmem.bw_inst_read::cpu2.inst           15                       # Instruction read bandwidth from this memory (bytes/s)
system.realview.nvmem.bw_inst_read::cpu3.inst           15                       # Instruction read bandwidth from this memory (bytes/s)
system.realview.nvmem.bw_inst_read::cpu4.inst           15                       # Instruction read bandwidth from this memory (bytes/s)
system.realview.nvmem.bw_inst_read::cpu5.inst           15                       # Instruction read bandwidth from this memory (bytes/s)
system.realview.nvmem.bw_inst_read::cpu6.inst           15                       # Instruction read bandwidth from this memory (bytes/s)
system.realview.nvmem.bw_inst_read::cpu7.inst           15                       # Instruction read bandwidth from this memory (bytes/s)
system.realview.nvmem.bw_inst_read::total          110                       # Instruction read bandwidth from this memory (bytes/s)
system.realview.nvmem.bw_total::cpu0.inst            6                       # Total bandwidth to/from this memory (bytes/s)
system.realview.nvmem.bw_total::cpu1.inst           15                       # Total bandwidth to/from this memory (bytes/s)
system.realview.nvmem.bw_total::cpu2.inst           15                       # Total bandwidth to/from this memory (bytes/s)
system.realview.nvmem.bw_total::cpu3.inst           15                       # Total bandwidth to/from this memory (bytes/s)
system.realview.nvmem.bw_total::cpu4.inst           15                       # Total bandwidth to/from this memory (bytes/s)
system.realview.nvmem.bw_total::cpu5.inst           15                       # Total bandwidth to/from this memory (bytes/s)
system.realview.nvmem.bw_total::cpu6.inst           15                       # Total bandwidth to/from this memory (bytes/s)
system.realview.nvmem.bw_total::cpu7.inst           15                       # Total bandwidth to/from this memory (bytes/s)
system.realview.nvmem.bw_total::total             110                       # Total bandwidth to/from this memory (bytes/s)
system.mem_ctrls.bytes_read::realview.ide       314880                       # Number of bytes read from this memory
system.mem_ctrls.bytes_read::cpu0.dtb.walker        70464                       # Number of bytes read from this memory
system.mem_ctrls.bytes_read::cpu0.itb.walker        65280                       # Number of bytes read from this memory
system.mem_ctrls.bytes_read::cpu0.inst        4468708                       # Number of bytes read from this memory
system.mem_ctrls.bytes_read::cpu0.data       38569328                       # Number of bytes read from this memory
system.mem_ctrls.bytes_read::cpu1.dtb.walker        55808                       # Number of bytes read from this memory
system.mem_ctrls.bytes_read::cpu1.itb.walker        57408                       # Number of bytes read from this memory
system.mem_ctrls.bytes_read::cpu1.inst        1548320                       # Number of bytes read from this memory
system.mem_ctrls.bytes_read::cpu1.data       13779323                       # Number of bytes read from this memory
system.mem_ctrls.bytes_read::cpu2.dtb.walker        61696                       # Number of bytes read from this memory
system.mem_ctrls.bytes_read::cpu2.itb.walker        65088                       # Number of bytes read from this memory
system.mem_ctrls.bytes_read::cpu2.inst      162108148                       # Number of bytes read from this memory
system.mem_ctrls.bytes_read::cpu2.data       66344855                       # Number of bytes read from this memory
system.mem_ctrls.bytes_read::cpu3.dtb.walker        70016                       # Number of bytes read from this memory
system.mem_ctrls.bytes_read::cpu3.itb.walker        75328                       # Number of bytes read from this memory
system.mem_ctrls.bytes_read::cpu3.inst      321559992                       # Number of bytes read from this memory
system.mem_ctrls.bytes_read::cpu3.data      119437251                       # Number of bytes read from this memory
system.mem_ctrls.bytes_read::cpu4.dtb.walker        55424                       # Number of bytes read from this memory
system.mem_ctrls.bytes_read::cpu4.itb.walker        57088                       # Number of bytes read from this memory
system.mem_ctrls.bytes_read::cpu4.inst      481983956                       # Number of bytes read from this memory
system.mem_ctrls.bytes_read::cpu4.data      172212983                       # Number of bytes read from this memory
system.mem_ctrls.bytes_read::cpu5.dtb.walker        30528                       # Number of bytes read from this memory
system.mem_ctrls.bytes_read::cpu5.itb.walker        18368                       # Number of bytes read from this memory
system.mem_ctrls.bytes_read::cpu5.inst      640589088                       # Number of bytes read from this memory
system.mem_ctrls.bytes_read::cpu5.data      217529915                       # Number of bytes read from this memory
system.mem_ctrls.bytes_read::cpu6.dtb.walker        35200                       # Number of bytes read from this memory
system.mem_ctrls.bytes_read::cpu6.itb.walker        41664                       # Number of bytes read from this memory
system.mem_ctrls.bytes_read::cpu6.inst      801764032                       # Number of bytes read from this memory
system.mem_ctrls.bytes_read::cpu6.data      275741787                       # Number of bytes read from this memory
system.mem_ctrls.bytes_read::cpu7.dtb.walker        54080                       # Number of bytes read from this memory
system.mem_ctrls.bytes_read::cpu7.itb.walker        55296                       # Number of bytes read from this memory
system.mem_ctrls.bytes_read::cpu7.inst      961450696                       # Number of bytes read from this memory
system.mem_ctrls.bytes_read::cpu7.data      329655388                       # Number of bytes read from this memory
system.mem_ctrls.bytes_read::total         4609927386                       # Number of bytes read from this memory
system.mem_ctrls.bytes_inst_read::cpu0.inst      4468708                       # Number of instructions bytes read from this memory
system.mem_ctrls.bytes_inst_read::cpu1.inst      1548320                       # Number of instructions bytes read from this memory
system.mem_ctrls.bytes_inst_read::cpu2.inst    162108148                       # Number of instructions bytes read from this memory
system.mem_ctrls.bytes_inst_read::cpu3.inst    321559992                       # Number of instructions bytes read from this memory
system.mem_ctrls.bytes_inst_read::cpu4.inst    481983956                       # Number of instructions bytes read from this memory
system.mem_ctrls.bytes_inst_read::cpu5.inst    640589088                       # Number of instructions bytes read from this memory
system.mem_ctrls.bytes_inst_read::cpu6.inst    801764032                       # Number of instructions bytes read from this memory
system.mem_ctrls.bytes_inst_read::cpu7.inst    961450696                       # Number of instructions bytes read from this memory
system.mem_ctrls.bytes_inst_read::total    3375472940                       # Number of instructions bytes read from this memory
system.mem_ctrls.bytes_written::writebacks     87917504                       # Number of bytes written to this memory
system.mem_ctrls.bytes_written::realview.ide     11153920                       # Number of bytes written to this memory
system.mem_ctrls.bytes_written::cpu0.data        18064                       # Number of bytes written to this memory
system.mem_ctrls.bytes_written::cpu1.data           54                       # Number of bytes written to this memory
system.mem_ctrls.bytes_written::cpu2.data           54                       # Number of bytes written to this memory
system.mem_ctrls.bytes_written::cpu3.data           54                       # Number of bytes written to this memory
system.mem_ctrls.bytes_written::cpu4.data           54                       # Number of bytes written to this memory
system.mem_ctrls.bytes_written::cpu5.data           54                       # Number of bytes written to this memory
system.mem_ctrls.bytes_written::cpu6.data           54                       # Number of bytes written to this memory
system.mem_ctrls.bytes_written::cpu7.data           40                       # Number of bytes written to this memory
system.mem_ctrls.bytes_written::total        99089852                       # Number of bytes written to this memory
system.mem_ctrls.num_reads::realview.ide         4920                       # Number of read requests responded to by this memory
system.mem_ctrls.num_reads::cpu0.dtb.walker         1101                       # Number of read requests responded to by this memory
system.mem_ctrls.num_reads::cpu0.itb.walker         1020                       # Number of read requests responded to by this memory
system.mem_ctrls.num_reads::cpu0.inst           78277                       # Number of read requests responded to by this memory
system.mem_ctrls.num_reads::cpu0.data          603273                       # Number of read requests responded to by this memory
system.mem_ctrls.num_reads::cpu1.dtb.walker          872                       # Number of read requests responded to by this memory
system.mem_ctrls.num_reads::cpu1.itb.walker          897                       # Number of read requests responded to by this memory
system.mem_ctrls.num_reads::cpu1.inst           24350                       # Number of read requests responded to by this memory
system.mem_ctrls.num_reads::cpu1.data          215333                       # Number of read requests responded to by this memory
system.mem_ctrls.num_reads::cpu2.dtb.walker          964                       # Number of read requests responded to by this memory
system.mem_ctrls.num_reads::cpu2.itb.walker         1017                       # Number of read requests responded to by this memory
system.mem_ctrls.num_reads::cpu2.inst        40038727                       # Number of read requests responded to by this memory
system.mem_ctrls.num_reads::cpu2.data        13538546                       # Number of read requests responded to by this memory
system.mem_ctrls.num_reads::cpu3.dtb.walker         1094                       # Number of read requests responded to by this memory
system.mem_ctrls.num_reads::cpu3.itb.walker         1177                       # Number of read requests responded to by this memory
system.mem_ctrls.num_reads::cpu3.inst        80041923                       # Number of read requests responded to by this memory
system.mem_ctrls.num_reads::cpu3.data        26872035                       # Number of read requests responded to by this memory
system.mem_ctrls.num_reads::cpu4.dtb.walker          866                       # Number of read requests responded to by this memory
system.mem_ctrls.num_reads::cpu4.itb.walker          892                       # Number of read requests responded to by this memory
system.mem_ctrls.num_reads::cpu4.inst       120049784                       # Number of read requests responded to by this memory
system.mem_ctrls.num_reads::cpu4.data        40197068                       # Number of read requests responded to by this memory
system.mem_ctrls.num_reads::cpu5.dtb.walker          477                       # Number of read requests responded to by this memory
system.mem_ctrls.num_reads::cpu5.itb.walker          287                       # Number of read requests responded to by this memory
system.mem_ctrls.num_reads::cpu5.inst       160032477                       # Number of read requests responded to by this memory
system.mem_ctrls.num_reads::cpu5.data        53406641                       # Number of read requests responded to by this memory
system.mem_ctrls.num_reads::cpu6.dtb.walker          550                       # Number of read requests responded to by this memory
system.mem_ctrls.num_reads::cpu6.itb.walker          651                       # Number of read requests responded to by this memory
system.mem_ctrls.num_reads::cpu6.inst       200056603                       # Number of read requests responded to by this memory
system.mem_ctrls.num_reads::cpu6.data        66818124                       # Number of read requests responded to by this memory
system.mem_ctrls.num_reads::cpu7.dtb.walker          845                       # Number of read requests responded to by this memory
system.mem_ctrls.num_reads::cpu7.itb.walker          864                       # Number of read requests responded to by this memory
system.mem_ctrls.num_reads::cpu7.inst       240057469                       # Number of read requests responded to by this memory
system.mem_ctrls.num_reads::cpu7.data        80162438                       # Number of read requests responded to by this memory
system.mem_ctrls.num_reads::total          1122211562                       # Number of read requests responded to by this memory
system.mem_ctrls.num_writes::writebacks       1373711                       # Number of write requests responded to by this memory
system.mem_ctrls.num_writes::realview.ide       174280                       # Number of write requests responded to by this memory
system.mem_ctrls.num_writes::cpu0.data           4522                       # Number of write requests responded to by this memory
system.mem_ctrls.num_writes::cpu1.data             14                       # Number of write requests responded to by this memory
system.mem_ctrls.num_writes::cpu2.data             14                       # Number of write requests responded to by this memory
system.mem_ctrls.num_writes::cpu3.data             14                       # Number of write requests responded to by this memory
system.mem_ctrls.num_writes::cpu4.data             14                       # Number of write requests responded to by this memory
system.mem_ctrls.num_writes::cpu5.data             14                       # Number of write requests responded to by this memory
system.mem_ctrls.num_writes::cpu6.data             14                       # Number of write requests responded to by this memory
system.mem_ctrls.num_writes::cpu7.data             10                       # Number of write requests responded to by this memory
system.mem_ctrls.num_writes::total            1552607                       # Number of write requests responded to by this memory
system.mem_ctrls.bw_read::realview.ide          97318                       # Total read bandwidth from this memory (bytes/s)
system.mem_ctrls.bw_read::cpu0.dtb.walker        21778                       # Total read bandwidth from this memory (bytes/s)
system.mem_ctrls.bw_read::cpu0.itb.walker        20176                       # Total read bandwidth from this memory (bytes/s)
system.mem_ctrls.bw_read::cpu0.inst           1381118                       # Total read bandwidth from this memory (bytes/s)
system.mem_ctrls.bw_read::cpu0.data          11920403                       # Total read bandwidth from this memory (bytes/s)
system.mem_ctrls.bw_read::cpu1.dtb.walker        17248                       # Total read bandwidth from this memory (bytes/s)
system.mem_ctrls.bw_read::cpu1.itb.walker        17743                       # Total read bandwidth from this memory (bytes/s)
system.mem_ctrls.bw_read::cpu1.inst            478530                       # Total read bandwidth from this memory (bytes/s)
system.mem_ctrls.bw_read::cpu1.data           4258697                       # Total read bandwidth from this memory (bytes/s)
system.mem_ctrls.bw_read::cpu2.dtb.walker        19068                       # Total read bandwidth from this memory (bytes/s)
system.mem_ctrls.bw_read::cpu2.itb.walker        20116                       # Total read bandwidth from this memory (bytes/s)
system.mem_ctrls.bw_read::cpu2.inst          50101845                       # Total read bandwidth from this memory (bytes/s)
system.mem_ctrls.bw_read::cpu2.data          20504828                       # Total read bandwidth from this memory (bytes/s)
system.mem_ctrls.bw_read::cpu3.dtb.walker        21639                       # Total read bandwidth from this memory (bytes/s)
system.mem_ctrls.bw_read::cpu3.itb.walker        23281                       # Total read bandwidth from this memory (bytes/s)
system.mem_ctrls.bw_read::cpu3.inst          99382721                       # Total read bandwidth from this memory (bytes/s)
system.mem_ctrls.bw_read::cpu3.data          36913793                       # Total read bandwidth from this memory (bytes/s)
system.mem_ctrls.bw_read::cpu4.dtb.walker        17130                       # Total read bandwidth from this memory (bytes/s)
system.mem_ctrls.bw_read::cpu4.itb.walker        17644                       # Total read bandwidth from this memory (bytes/s)
system.mem_ctrls.bw_read::cpu4.inst         148964044                       # Total read bandwidth from this memory (bytes/s)
system.mem_ctrls.bw_read::cpu4.data          53224889                       # Total read bandwidth from this memory (bytes/s)
system.mem_ctrls.bw_read::cpu5.dtb.walker         9435                       # Total read bandwidth from this memory (bytes/s)
system.mem_ctrls.bw_read::cpu5.itb.walker         5677                       # Total read bandwidth from this memory (bytes/s)
system.mem_ctrls.bw_read::cpu5.inst         197983232                       # Total read bandwidth from this memory (bytes/s)
system.mem_ctrls.bw_read::cpu5.data          67230736                       # Total read bandwidth from this memory (bytes/s)
system.mem_ctrls.bw_read::cpu6.dtb.walker        10879                       # Total read bandwidth from this memory (bytes/s)
system.mem_ctrls.bw_read::cpu6.itb.walker        12877                       # Total read bandwidth from this memory (bytes/s)
system.mem_ctrls.bw_read::cpu6.inst         247796656                       # Total read bandwidth from this memory (bytes/s)
system.mem_ctrls.bw_read::cpu6.data          85221948                       # Total read bandwidth from this memory (bytes/s)
system.mem_ctrls.bw_read::cpu7.dtb.walker        16714                       # Total read bandwidth from this memory (bytes/s)
system.mem_ctrls.bw_read::cpu7.itb.walker        17090                       # Total read bandwidth from this memory (bytes/s)
system.mem_ctrls.bw_read::cpu7.inst         297150107                       # Total read bandwidth from this memory (bytes/s)
system.mem_ctrls.bw_read::cpu7.data         101884719                       # Total read bandwidth from this memory (bytes/s)
system.mem_ctrls.bw_read::total            1424764078                       # Total read bandwidth from this memory (bytes/s)
system.mem_ctrls.bw_inst_read::cpu0.inst      1381118                       # Instruction read bandwidth from this memory (bytes/s)
system.mem_ctrls.bw_inst_read::cpu1.inst       478530                       # Instruction read bandwidth from this memory (bytes/s)
system.mem_ctrls.bw_inst_read::cpu2.inst     50101845                       # Instruction read bandwidth from this memory (bytes/s)
system.mem_ctrls.bw_inst_read::cpu3.inst     99382721                       # Instruction read bandwidth from this memory (bytes/s)
system.mem_ctrls.bw_inst_read::cpu4.inst    148964044                       # Instruction read bandwidth from this memory (bytes/s)
system.mem_ctrls.bw_inst_read::cpu5.inst    197983232                       # Instruction read bandwidth from this memory (bytes/s)
system.mem_ctrls.bw_inst_read::cpu6.inst    247796656                       # Instruction read bandwidth from this memory (bytes/s)
system.mem_ctrls.bw_inst_read::cpu7.inst    297150107                       # Instruction read bandwidth from this memory (bytes/s)
system.mem_ctrls.bw_inst_read::total       1043238253                       # Instruction read bandwidth from this memory (bytes/s)
system.mem_ctrls.bw_write::writebacks        27172164                       # Write bandwidth from this memory (bytes/s)
system.mem_ctrls.bw_write::realview.ide       3447279                       # Write bandwidth from this memory (bytes/s)
system.mem_ctrls.bw_write::cpu0.data             5583                       # Write bandwidth from this memory (bytes/s)
system.mem_ctrls.bw_write::cpu1.data               17                       # Write bandwidth from this memory (bytes/s)
system.mem_ctrls.bw_write::cpu2.data               17                       # Write bandwidth from this memory (bytes/s)
system.mem_ctrls.bw_write::cpu3.data               17                       # Write bandwidth from this memory (bytes/s)
system.mem_ctrls.bw_write::cpu4.data               17                       # Write bandwidth from this memory (bytes/s)
system.mem_ctrls.bw_write::cpu5.data               17                       # Write bandwidth from this memory (bytes/s)
system.mem_ctrls.bw_write::cpu6.data               17                       # Write bandwidth from this memory (bytes/s)
system.mem_ctrls.bw_write::cpu7.data               12                       # Write bandwidth from this memory (bytes/s)
system.mem_ctrls.bw_write::total             30625138                       # Write bandwidth from this memory (bytes/s)
system.mem_ctrls.bw_total::writebacks        27172164                       # Total bandwidth to/from this memory (bytes/s)
system.mem_ctrls.bw_total::realview.ide       3544597                       # Total bandwidth to/from this memory (bytes/s)
system.mem_ctrls.bw_total::cpu0.dtb.walker        21778                       # Total bandwidth to/from this memory (bytes/s)
system.mem_ctrls.bw_total::cpu0.itb.walker        20176                       # Total bandwidth to/from this memory (bytes/s)
system.mem_ctrls.bw_total::cpu0.inst          1381118                       # Total bandwidth to/from this memory (bytes/s)
system.mem_ctrls.bw_total::cpu0.data         11925986                       # Total bandwidth to/from this memory (bytes/s)
system.mem_ctrls.bw_total::cpu1.dtb.walker        17248                       # Total bandwidth to/from this memory (bytes/s)
system.mem_ctrls.bw_total::cpu1.itb.walker        17743                       # Total bandwidth to/from this memory (bytes/s)
system.mem_ctrls.bw_total::cpu1.inst           478530                       # Total bandwidth to/from this memory (bytes/s)
system.mem_ctrls.bw_total::cpu1.data          4258714                       # Total bandwidth to/from this memory (bytes/s)
system.mem_ctrls.bw_total::cpu2.dtb.walker        19068                       # Total bandwidth to/from this memory (bytes/s)
system.mem_ctrls.bw_total::cpu2.itb.walker        20116                       # Total bandwidth to/from this memory (bytes/s)
system.mem_ctrls.bw_total::cpu2.inst         50101845                       # Total bandwidth to/from this memory (bytes/s)
system.mem_ctrls.bw_total::cpu2.data         20504844                       # Total bandwidth to/from this memory (bytes/s)
system.mem_ctrls.bw_total::cpu3.dtb.walker        21639                       # Total bandwidth to/from this memory (bytes/s)
system.mem_ctrls.bw_total::cpu3.itb.walker        23281                       # Total bandwidth to/from this memory (bytes/s)
system.mem_ctrls.bw_total::cpu3.inst         99382721                       # Total bandwidth to/from this memory (bytes/s)
system.mem_ctrls.bw_total::cpu3.data         36913810                       # Total bandwidth to/from this memory (bytes/s)
system.mem_ctrls.bw_total::cpu4.dtb.walker        17130                       # Total bandwidth to/from this memory (bytes/s)
system.mem_ctrls.bw_total::cpu4.itb.walker        17644                       # Total bandwidth to/from this memory (bytes/s)
system.mem_ctrls.bw_total::cpu4.inst        148964044                       # Total bandwidth to/from this memory (bytes/s)
system.mem_ctrls.bw_total::cpu4.data         53224905                       # Total bandwidth to/from this memory (bytes/s)
system.mem_ctrls.bw_total::cpu5.dtb.walker         9435                       # Total bandwidth to/from this memory (bytes/s)
system.mem_ctrls.bw_total::cpu5.itb.walker         5677                       # Total bandwidth to/from this memory (bytes/s)
system.mem_ctrls.bw_total::cpu5.inst        197983232                       # Total bandwidth to/from this memory (bytes/s)
system.mem_ctrls.bw_total::cpu5.data         67230752                       # Total bandwidth to/from this memory (bytes/s)
system.mem_ctrls.bw_total::cpu6.dtb.walker        10879                       # Total bandwidth to/from this memory (bytes/s)
system.mem_ctrls.bw_total::cpu6.itb.walker        12877                       # Total bandwidth to/from this memory (bytes/s)
system.mem_ctrls.bw_total::cpu6.inst        247796656                       # Total bandwidth to/from this memory (bytes/s)
system.mem_ctrls.bw_total::cpu6.data         85221965                       # Total bandwidth to/from this memory (bytes/s)
system.mem_ctrls.bw_total::cpu7.dtb.walker        16714                       # Total bandwidth to/from this memory (bytes/s)
system.mem_ctrls.bw_total::cpu7.itb.walker        17090                       # Total bandwidth to/from this memory (bytes/s)
system.mem_ctrls.bw_total::cpu7.inst        297150107                       # Total bandwidth to/from this memory (bytes/s)
system.mem_ctrls.bw_total::cpu7.data        101884731                       # Total bandwidth to/from this memory (bytes/s)
system.mem_ctrls.bw_total::total           1455389216                       # Total bandwidth to/from this memory (bytes/s)
system.mem_ctrls.readReqs                           0                       # Number of read requests accepted
system.mem_ctrls.writeReqs                          0                       # Number of write requests accepted
system.mem_ctrls.readBursts                         0                       # Number of DRAM read bursts, including those serviced by the write queue
system.mem_ctrls.writeBursts                        0                       # Number of DRAM write bursts, including those merged in the write queue
system.mem_ctrls.bytesReadDRAM                      0                       # Total number of bytes read from DRAM
system.mem_ctrls.bytesReadWrQ                       0                       # Total number of bytes read from write queue
system.mem_ctrls.bytesWritten                       0                       # Total number of bytes written to DRAM
system.mem_ctrls.bytesReadSys                       0                       # Total read bytes from the system interface side
system.mem_ctrls.bytesWrittenSys                    0                       # Total written bytes from the system interface side
system.mem_ctrls.servicedByWrQ                      0                       # Number of DRAM read bursts serviced by the write queue
system.mem_ctrls.mergedWrBursts                     0                       # Number of DRAM write bursts merged with an existing one
system.mem_ctrls.neitherReadNorWriteReqs            0                       # Number of requests that are neither read nor write
system.mem_ctrls.perBankRdBursts::0                 0                       # Per bank write bursts
system.mem_ctrls.perBankRdBursts::1                 0                       # Per bank write bursts
system.mem_ctrls.perBankRdBursts::2                 0                       # Per bank write bursts
system.mem_ctrls.perBankRdBursts::3                 0                       # Per bank write bursts
system.mem_ctrls.perBankRdBursts::4                 0                       # Per bank write bursts
system.mem_ctrls.perBankRdBursts::5                 0                       # Per bank write bursts
system.mem_ctrls.perBankRdBursts::6                 0                       # Per bank write bursts
system.mem_ctrls.perBankRdBursts::7                 0                       # Per bank write bursts
system.mem_ctrls.perBankRdBursts::8                 0                       # Per bank write bursts
system.mem_ctrls.perBankRdBursts::9                 0                       # Per bank write bursts
system.mem_ctrls.perBankRdBursts::10                0                       # Per bank write bursts
system.mem_ctrls.perBankRdBursts::11                0                       # Per bank write bursts
system.mem_ctrls.perBankRdBursts::12                0                       # Per bank write bursts
system.mem_ctrls.perBankRdBursts::13                0                       # Per bank write bursts
system.mem_ctrls.perBankRdBursts::14                0                       # Per bank write bursts
system.mem_ctrls.perBankRdBursts::15                0                       # Per bank write bursts
system.mem_ctrls.perBankWrBursts::0                 0                       # Per bank write bursts
system.mem_ctrls.perBankWrBursts::1                 0                       # Per bank write bursts
system.mem_ctrls.perBankWrBursts::2                 0                       # Per bank write bursts
system.mem_ctrls.perBankWrBursts::3                 0                       # Per bank write bursts
system.mem_ctrls.perBankWrBursts::4                 0                       # Per bank write bursts
system.mem_ctrls.perBankWrBursts::5                 0                       # Per bank write bursts
system.mem_ctrls.perBankWrBursts::6                 0                       # Per bank write bursts
system.mem_ctrls.perBankWrBursts::7                 0                       # Per bank write bursts
system.mem_ctrls.perBankWrBursts::8                 0                       # Per bank write bursts
system.mem_ctrls.perBankWrBursts::9                 0                       # Per bank write bursts
system.mem_ctrls.perBankWrBursts::10                0                       # Per bank write bursts
system.mem_ctrls.perBankWrBursts::11                0                       # Per bank write bursts
system.mem_ctrls.perBankWrBursts::12                0                       # Per bank write bursts
system.mem_ctrls.perBankWrBursts::13                0                       # Per bank write bursts
system.mem_ctrls.perBankWrBursts::14                0                       # Per bank write bursts
system.mem_ctrls.perBankWrBursts::15                0                       # Per bank write bursts
system.mem_ctrls.numRdRetry                         0                       # Number of times read queue was full causing retry
system.mem_ctrls.numWrRetry                         0                       # Number of times write queue was full causing retry
system.mem_ctrls.totGap                             0                       # Total gap between requests
system.mem_ctrls.readPktSize::0                     0                       # Read request sizes (log2)
system.mem_ctrls.readPktSize::1                     0                       # Read request sizes (log2)
system.mem_ctrls.readPktSize::2                     0                       # Read request sizes (log2)
system.mem_ctrls.readPktSize::3                     0                       # Read request sizes (log2)
system.mem_ctrls.readPktSize::4                     0                       # Read request sizes (log2)
system.mem_ctrls.readPktSize::5                     0                       # Read request sizes (log2)
system.mem_ctrls.readPktSize::6                     0                       # Read request sizes (log2)
system.mem_ctrls.writePktSize::0                    0                       # Write request sizes (log2)
system.mem_ctrls.writePktSize::1                    0                       # Write request sizes (log2)
system.mem_ctrls.writePktSize::2                    0                       # Write request sizes (log2)
system.mem_ctrls.writePktSize::3                    0                       # Write request sizes (log2)
system.mem_ctrls.writePktSize::4                    0                       # Write request sizes (log2)
system.mem_ctrls.writePktSize::5                    0                       # Write request sizes (log2)
system.mem_ctrls.writePktSize::6                    0                       # Write request sizes (log2)
system.mem_ctrls.rdQLenPdf::0                       0                       # What read queue length does an incoming req see
system.mem_ctrls.rdQLenPdf::1                       0                       # What read queue length does an incoming req see
system.mem_ctrls.rdQLenPdf::2                       0                       # What read queue length does an incoming req see
system.mem_ctrls.rdQLenPdf::3                       0                       # What read queue length does an incoming req see
system.mem_ctrls.rdQLenPdf::4                       0                       # What read queue length does an incoming req see
system.mem_ctrls.rdQLenPdf::5                       0                       # What read queue length does an incoming req see
system.mem_ctrls.rdQLenPdf::6                       0                       # What read queue length does an incoming req see
system.mem_ctrls.rdQLenPdf::7                       0                       # What read queue length does an incoming req see
system.mem_ctrls.rdQLenPdf::8                       0                       # What read queue length does an incoming req see
system.mem_ctrls.rdQLenPdf::9                       0                       # What read queue length does an incoming req see
system.mem_ctrls.rdQLenPdf::10                      0                       # What read queue length does an incoming req see
system.mem_ctrls.rdQLenPdf::11                      0                       # What read queue length does an incoming req see
system.mem_ctrls.rdQLenPdf::12                      0                       # What read queue length does an incoming req see
system.mem_ctrls.rdQLenPdf::13                      0                       # What read queue length does an incoming req see
system.mem_ctrls.rdQLenPdf::14                      0                       # What read queue length does an incoming req see
system.mem_ctrls.rdQLenPdf::15                      0                       # What read queue length does an incoming req see
system.mem_ctrls.rdQLenPdf::16                      0                       # What read queue length does an incoming req see
system.mem_ctrls.rdQLenPdf::17                      0                       # What read queue length does an incoming req see
system.mem_ctrls.rdQLenPdf::18                      0                       # What read queue length does an incoming req see
system.mem_ctrls.rdQLenPdf::19                      0                       # What read queue length does an incoming req see
system.mem_ctrls.rdQLenPdf::20                      0                       # What read queue length does an incoming req see
system.mem_ctrls.rdQLenPdf::21                      0                       # What read queue length does an incoming req see
system.mem_ctrls.rdQLenPdf::22                      0                       # What read queue length does an incoming req see
system.mem_ctrls.rdQLenPdf::23                      0                       # What read queue length does an incoming req see
system.mem_ctrls.rdQLenPdf::24                      0                       # What read queue length does an incoming req see
system.mem_ctrls.rdQLenPdf::25                      0                       # What read queue length does an incoming req see
system.mem_ctrls.rdQLenPdf::26                      0                       # What read queue length does an incoming req see
system.mem_ctrls.rdQLenPdf::27                      0                       # What read queue length does an incoming req see
system.mem_ctrls.rdQLenPdf::28                      0                       # What read queue length does an incoming req see
system.mem_ctrls.rdQLenPdf::29                      0                       # What read queue length does an incoming req see
system.mem_ctrls.rdQLenPdf::30                      0                       # What read queue length does an incoming req see
system.mem_ctrls.rdQLenPdf::31                      0                       # What read queue length does an incoming req see
system.mem_ctrls.wrQLenPdf::0                       0                       # What write queue length does an incoming req see
system.mem_ctrls.wrQLenPdf::1                       0                       # What write queue length does an incoming req see
system.mem_ctrls.wrQLenPdf::2                       0                       # What write queue length does an incoming req see
system.mem_ctrls.wrQLenPdf::3                       0                       # What write queue length does an incoming req see
system.mem_ctrls.wrQLenPdf::4                       0                       # What write queue length does an incoming req see
system.mem_ctrls.wrQLenPdf::5                       0                       # What write queue length does an incoming req see
system.mem_ctrls.wrQLenPdf::6                       0                       # What write queue length does an incoming req see
system.mem_ctrls.wrQLenPdf::7                       0                       # What write queue length does an incoming req see
system.mem_ctrls.wrQLenPdf::8                       0                       # What write queue length does an incoming req see
system.mem_ctrls.wrQLenPdf::9                       0                       # What write queue length does an incoming req see
system.mem_ctrls.wrQLenPdf::10                      0                       # What write queue length does an incoming req see
system.mem_ctrls.wrQLenPdf::11                      0                       # What write queue length does an incoming req see
system.mem_ctrls.wrQLenPdf::12                      0                       # What write queue length does an incoming req see
system.mem_ctrls.wrQLenPdf::13                      0                       # What write queue length does an incoming req see
system.mem_ctrls.wrQLenPdf::14                      0                       # What write queue length does an incoming req see
system.mem_ctrls.wrQLenPdf::15                      0                       # What write queue length does an incoming req see
system.mem_ctrls.wrQLenPdf::16                      0                       # What write queue length does an incoming req see
system.mem_ctrls.wrQLenPdf::17                      0                       # What write queue length does an incoming req see
system.mem_ctrls.wrQLenPdf::18                      0                       # What write queue length does an incoming req see
system.mem_ctrls.wrQLenPdf::19                      0                       # What write queue length does an incoming req see
system.mem_ctrls.wrQLenPdf::20                      0                       # What write queue length does an incoming req see
system.mem_ctrls.wrQLenPdf::21                      0                       # What write queue length does an incoming req see
system.mem_ctrls.wrQLenPdf::22                      0                       # What write queue length does an incoming req see
system.mem_ctrls.wrQLenPdf::23                      0                       # What write queue length does an incoming req see
system.mem_ctrls.wrQLenPdf::24                      0                       # What write queue length does an incoming req see
system.mem_ctrls.wrQLenPdf::25                      0                       # What write queue length does an incoming req see
system.mem_ctrls.wrQLenPdf::26                      0                       # What write queue length does an incoming req see
system.mem_ctrls.wrQLenPdf::27                      0                       # What write queue length does an incoming req see
system.mem_ctrls.wrQLenPdf::28                      0                       # What write queue length does an incoming req see
system.mem_ctrls.wrQLenPdf::29                      0                       # What write queue length does an incoming req see
system.mem_ctrls.wrQLenPdf::30                      0                       # What write queue length does an incoming req see
system.mem_ctrls.wrQLenPdf::31                      0                       # What write queue length does an incoming req see
system.mem_ctrls.wrQLenPdf::32                      0                       # What write queue length does an incoming req see
system.mem_ctrls.wrQLenPdf::33                      0                       # What write queue length does an incoming req see
system.mem_ctrls.wrQLenPdf::34                      0                       # What write queue length does an incoming req see
system.mem_ctrls.wrQLenPdf::35                      0                       # What write queue length does an incoming req see
system.mem_ctrls.wrQLenPdf::36                      0                       # What write queue length does an incoming req see
system.mem_ctrls.wrQLenPdf::37                      0                       # What write queue length does an incoming req see
system.mem_ctrls.wrQLenPdf::38                      0                       # What write queue length does an incoming req see
system.mem_ctrls.wrQLenPdf::39                      0                       # What write queue length does an incoming req see
system.mem_ctrls.wrQLenPdf::40                      0                       # What write queue length does an incoming req see
system.mem_ctrls.wrQLenPdf::41                      0                       # What write queue length does an incoming req see
system.mem_ctrls.wrQLenPdf::42                      0                       # What write queue length does an incoming req see
system.mem_ctrls.wrQLenPdf::43                      0                       # What write queue length does an incoming req see
system.mem_ctrls.wrQLenPdf::44                      0                       # What write queue length does an incoming req see
system.mem_ctrls.wrQLenPdf::45                      0                       # What write queue length does an incoming req see
system.mem_ctrls.wrQLenPdf::46                      0                       # What write queue length does an incoming req see
system.mem_ctrls.wrQLenPdf::47                      0                       # What write queue length does an incoming req see
system.mem_ctrls.wrQLenPdf::48                      0                       # What write queue length does an incoming req see
system.mem_ctrls.wrQLenPdf::49                      0                       # What write queue length does an incoming req see
system.mem_ctrls.wrQLenPdf::50                      0                       # What write queue length does an incoming req see
system.mem_ctrls.wrQLenPdf::51                      0                       # What write queue length does an incoming req see
system.mem_ctrls.wrQLenPdf::52                      0                       # What write queue length does an incoming req see
system.mem_ctrls.wrQLenPdf::53                      0                       # What write queue length does an incoming req see
system.mem_ctrls.wrQLenPdf::54                      0                       # What write queue length does an incoming req see
system.mem_ctrls.wrQLenPdf::55                      0                       # What write queue length does an incoming req see
system.mem_ctrls.wrQLenPdf::56                      0                       # What write queue length does an incoming req see
system.mem_ctrls.wrQLenPdf::57                      0                       # What write queue length does an incoming req see
system.mem_ctrls.wrQLenPdf::58                      0                       # What write queue length does an incoming req see
system.mem_ctrls.wrQLenPdf::59                      0                       # What write queue length does an incoming req see
system.mem_ctrls.wrQLenPdf::60                      0                       # What write queue length does an incoming req see
system.mem_ctrls.wrQLenPdf::61                      0                       # What write queue length does an incoming req see
system.mem_ctrls.wrQLenPdf::62                      0                       # What write queue length does an incoming req see
system.mem_ctrls.wrQLenPdf::63                      0                       # What write queue length does an incoming req see
system.mem_ctrls.totQLat                            0                       # Total ticks spent queuing
system.mem_ctrls.totMemAccLat                       0                       # Total ticks spent from burst creation until serviced by the DRAM
system.mem_ctrls.totBusLat                          0                       # Total ticks spent in databus transfers
system.mem_ctrls.avgQLat                          nan                       # Average queueing delay per DRAM burst
system.mem_ctrls.avgBusLat                        nan                       # Average bus latency per DRAM burst
system.mem_ctrls.avgMemAccLat                     nan                       # Average memory access latency per DRAM burst
system.mem_ctrls.avgRdBW                         0.00                       # Average DRAM read bandwidth in MiByte/s
system.mem_ctrls.avgWrBW                         0.00                       # Average achieved write bandwidth in MiByte/s
system.mem_ctrls.avgRdBWSys                      0.00                       # Average system read bandwidth in MiByte/s
system.mem_ctrls.avgWrBWSys                      0.00                       # Average system write bandwidth in MiByte/s
system.mem_ctrls.peakBW                      12800.00                       # Theoretical peak bandwidth in MiByte/s
system.mem_ctrls.busUtil                         0.00                       # Data bus utilization in percentage
system.mem_ctrls.busUtilRead                     0.00                       # Data bus utilization in percentage for reads
system.mem_ctrls.busUtilWrite                    0.00                       # Data bus utilization in percentage for writes
system.mem_ctrls.avgRdQLen                       0.00                       # Average read queue length when enqueuing
system.mem_ctrls.avgWrQLen                       0.00                       # Average write queue length when enqueuing
system.mem_ctrls.readRowHits                        0                       # Number of row buffer hits during reads
system.mem_ctrls.writeRowHits                       0                       # Number of row buffer hits during writes
system.mem_ctrls.readRowHitRate                   nan                       # Row buffer hit rate for reads
system.mem_ctrls.writeRowHitRate                  nan                       # Row buffer hit rate for writes
system.mem_ctrls.avgGap                           nan                       # Average gap between requests
system.mem_ctrls.pageHitRate                      nan                       # Row buffer hit rate, read and write combined
system.mem_ctrls.memoryStateTime::IDLE   3127525921250                       # Time in different power states
system.mem_ctrls.memoryStateTime::REF    108042740000                       # Time in different power states
system.mem_ctrls.memoryStateTime::PRE_PDN            0                       # Time in different power states
system.mem_ctrls.memoryStateTime::ACT               0                       # Time in different power states
system.mem_ctrls.memoryStateTime::ACT_PDN            0                       # Time in different power states
system.mem_ctrls.actEnergy::0                       0                       # Energy for activate commands per rank (pJ)
system.mem_ctrls.actEnergy::1                       0                       # Energy for activate commands per rank (pJ)
system.mem_ctrls.preEnergy::0                       0                       # Energy for precharge commands per rank (pJ)
system.mem_ctrls.preEnergy::1                       0                       # Energy for precharge commands per rank (pJ)
system.mem_ctrls.readEnergy::0                      0                       # Energy for read commands per rank (pJ)
system.mem_ctrls.readEnergy::1                      0                       # Energy for read commands per rank (pJ)
system.mem_ctrls.writeEnergy::0                     0                       # Energy for write commands per rank (pJ)
system.mem_ctrls.writeEnergy::1                     0                       # Energy for write commands per rank (pJ)
system.mem_ctrls.refreshEnergy::0        211331599440                       # Energy for refresh commands per rank (pJ)
system.mem_ctrls.refreshEnergy::1        211331599440                       # Energy for refresh commands per rank (pJ)
system.mem_ctrls.actBackEnergy::0         69992995815                       # Energy for active background per rank (pJ)
system.mem_ctrls.actBackEnergy::1         69992995815                       # Energy for active background per rank (pJ)
system.mem_ctrls.preBackEnergy::0        1879943823750                       # Energy for precharge background per rank (pJ)
system.mem_ctrls.preBackEnergy::1        1879943823750                       # Energy for precharge background per rank (pJ)
system.mem_ctrls.totalEnergy::0          2161268419005                       # Total energy per rank (pJ)
system.mem_ctrls.totalEnergy::1          2161268419005                       # Total energy per rank (pJ)
system.mem_ctrls.averagePower::0           667.971740                       # Core power per rank (mW)
system.mem_ctrls.averagePower::1           667.971740                       # Core power per rank (mW)
system.cpu_voltage_domain.voltage                   1                       # Voltage in Volts
system.cpu_clk_domain.clock                       500                       # Clock period in ticks
system.tol2bus.trans_dist::ReadReq         1140493072                       # Transaction distribution
system.tol2bus.trans_dist::ReadResp        1140493090                       # Transaction distribution
system.tol2bus.trans_dist::WriteReq             51214                       # Transaction distribution
system.tol2bus.trans_dist::WriteResp            51214                       # Transaction distribution
system.tol2bus.trans_dist::Writeback          4041805                       # Transaction distribution
system.tol2bus.trans_dist::SoftPFReq               18                       # Transaction distribution
system.tol2bus.trans_dist::SoftPFResp              18                       # Transaction distribution
system.tol2bus.trans_dist::UpgradeReq          310163                       # Transaction distribution
system.tol2bus.trans_dist::SCUpgradeReq        220113                       # Transaction distribution
system.tol2bus.trans_dist::UpgradeResp         530276                       # Transaction distribution
system.tol2bus.trans_dist::ReadExReq          2303901                       # Transaction distribution
system.tol2bus.trans_dist::ReadExResp         2303901                       # Transaction distribution
system.tol2bus.trans_dist::LoadLockedReq           18                       # Transaction distribution
system.tol2bus.trans_dist::StoreCondReq            18                       # Transaction distribution
system.tol2bus.trans_dist::StoreCondResp           18                       # Transaction distribution
system.tol2bus.pkt_count_system.cpu0.icache.mem_side::system.l2.cpu_side      7303732                       # Packet count per connected master and slave (bytes)
system.tol2bus.pkt_count_system.cpu0.dcache.mem_side::system.l2.cpu_side      5195323                       # Packet count per connected master and slave (bytes)
system.tol2bus.pkt_count_system.cpu0.itb.walker.dma::system.l2.cpu_side       150788                       # Packet count per connected master and slave (bytes)
system.tol2bus.pkt_count_system.cpu0.dtb.walker.dma::system.l2.cpu_side       398050                       # Packet count per connected master and slave (bytes)
system.tol2bus.pkt_count_system.cpu1.icache.mem_side::system.l2.cpu_side      4157342                       # Packet count per connected master and slave (bytes)
system.tol2bus.pkt_count_system.cpu1.dcache.mem_side::system.l2.cpu_side      2744674                       # Packet count per connected master and slave (bytes)
system.tol2bus.pkt_count_system.cpu1.itb.walker.dma::system.l2.cpu_side       114624                       # Packet count per connected master and slave (bytes)
system.tol2bus.pkt_count_system.cpu1.dtb.walker.dma::system.l2.cpu_side       298552                       # Packet count per connected master and slave (bytes)
system.tol2bus.pkt_count_system.cpu2.icache.mem_side::system.l2.cpu_side     84000602                       # Packet count per connected master and slave (bytes)
system.tol2bus.pkt_count_system.cpu2.dcache.mem_side::system.l2.cpu_side     29619953                       # Packet count per connected master and slave (bytes)
system.tol2bus.pkt_count_system.cpu2.itb.walker.dma::system.l2.cpu_side       167298                       # Packet count per connected master and slave (bytes)
system.tol2bus.pkt_count_system.cpu2.dtb.walker.dma::system.l2.cpu_side       387452                       # Packet count per connected master and slave (bytes)
system.tol2bus.pkt_count_system.cpu3.icache.mem_side::system.l2.cpu_side    162586544                       # Packet count per connected master and slave (bytes)
system.tol2bus.pkt_count_system.cpu3.dcache.mem_side::system.l2.cpu_side     55547686                       # Packet count per connected master and slave (bytes)
system.tol2bus.pkt_count_system.cpu3.itb.walker.dma::system.l2.cpu_side       102832                       # Packet count per connected master and slave (bytes)
system.tol2bus.pkt_count_system.cpu3.dtb.walker.dma::system.l2.cpu_side       206918                       # Packet count per connected master and slave (bytes)
system.tol2bus.pkt_count_system.cpu4.icache.mem_side::system.l2.cpu_side    242826136                       # Packet count per connected master and slave (bytes)
system.tol2bus.pkt_count_system.cpu4.dcache.mem_side::system.l2.cpu_side     82216423                       # Packet count per connected master and slave (bytes)
system.tol2bus.pkt_count_system.cpu4.itb.walker.dma::system.l2.cpu_side       104688                       # Packet count per connected master and slave (bytes)
system.tol2bus.pkt_count_system.cpu4.dtb.walker.dma::system.l2.cpu_side       241170                       # Packet count per connected master and slave (bytes)
system.tol2bus.pkt_count_system.cpu5.icache.mem_side::system.l2.cpu_side    320912264                       # Packet count per connected master and slave (bytes)
system.tol2bus.pkt_count_system.cpu5.dcache.mem_side::system.l2.cpu_side    107467082                       # Packet count per connected master and slave (bytes)
system.tol2bus.pkt_count_system.cpu5.itb.walker.dma::system.l2.cpu_side        46002                       # Packet count per connected master and slave (bytes)
system.tol2bus.pkt_count_system.cpu5.dtb.walker.dma::system.l2.cpu_side       104384                       # Packet count per connected master and slave (bytes)
system.tol2bus.pkt_count_system.cpu6.icache.mem_side::system.l2.cpu_side    402914258                       # Packet count per connected master and slave (bytes)
system.tol2bus.pkt_count_system.cpu6.dcache.mem_side::system.l2.cpu_side    135456015                       # Packet count per connected master and slave (bytes)
system.tol2bus.pkt_count_system.cpu6.itb.walker.dma::system.l2.cpu_side       174008                       # Packet count per connected master and slave (bytes)
system.tol2bus.pkt_count_system.cpu6.dtb.walker.dma::system.l2.cpu_side       362198                       # Packet count per connected master and slave (bytes)
system.tol2bus.pkt_count_system.cpu7.icache.mem_side::system.l2.cpu_side    482679122                       # Packet count per connected master and slave (bytes)
system.tol2bus.pkt_count_system.cpu7.dcache.mem_side::system.l2.cpu_side    161995609                       # Packet count per connected master and slave (bytes)
system.tol2bus.pkt_count_system.cpu7.itb.walker.dma::system.l2.cpu_side       100748                       # Packet count per connected master and slave (bytes)
system.tol2bus.pkt_count_system.cpu7.dtb.walker.dma::system.l2.cpu_side       216362                       # Packet count per connected master and slave (bytes)
system.tol2bus.pkt_count::total            2290798839                       # Packet count per connected master and slave (bytes)
system.tol2bus.pkt_size_system.cpu0.icache.mem_side::system.l2.cpu_side    233178104                       # Cumulative packet size per connected master and slave (bytes)
system.tol2bus.pkt_size_system.cpu0.dcache.mem_side::system.l2.cpu_side    189256255                       # Cumulative packet size per connected master and slave (bytes)
system.tol2bus.pkt_size_system.cpu0.itb.walker.dma::system.l2.cpu_side       301576                       # Cumulative packet size per connected master and slave (bytes)
system.tol2bus.pkt_size_system.cpu0.dtb.walker.dma::system.l2.cpu_side       796100                       # Cumulative packet size per connected master and slave (bytes)
system.tol2bus.pkt_size_system.cpu1.icache.mem_side::system.l2.cpu_side    133024144                       # Cumulative packet size per connected master and slave (bytes)
system.tol2bus.pkt_size_system.cpu1.dcache.mem_side::system.l2.cpu_side     98303847                       # Cumulative packet size per connected master and slave (bytes)
system.tol2bus.pkt_size_system.cpu1.itb.walker.dma::system.l2.cpu_side       229248                       # Cumulative packet size per connected master and slave (bytes)
system.tol2bus.pkt_size_system.cpu1.dtb.walker.dma::system.l2.cpu_side       597104                       # Cumulative packet size per connected master and slave (bytes)
system.tol2bus.pkt_size_system.cpu2.icache.mem_side::system.l2.cpu_side    287648164                       # Cumulative packet size per connected master and slave (bytes)
system.tol2bus.pkt_size_system.cpu2.dcache.mem_side::system.l2.cpu_side    161546325                       # Cumulative packet size per connected master and slave (bytes)
system.tol2bus.pkt_size_system.cpu2.itb.walker.dma::system.l2.cpu_side       334596                       # Cumulative packet size per connected master and slave (bytes)
system.tol2bus.pkt_size_system.cpu2.dtb.walker.dma::system.l2.cpu_side       774904                       # Cumulative packet size per connected master and slave (bytes)
system.tol2bus.pkt_size_system.cpu3.icache.mem_side::system.l2.cpu_side    401645608                       # Cumulative packet size per connected master and slave (bytes)
system.tol2bus.pkt_size_system.cpu3.dcache.mem_side::system.l2.cpu_side    186837081                       # Cumulative packet size per connected master and slave (bytes)
system.tol2bus.pkt_size_system.cpu3.itb.walker.dma::system.l2.cpu_side       205664                       # Cumulative packet size per connected master and slave (bytes)
system.tol2bus.pkt_size_system.cpu3.dtb.walker.dma::system.l2.cpu_side       413836                       # Cumulative packet size per connected master and slave (bytes)
system.tol2bus.pkt_size_system.cpu4.icache.mem_side::system.l2.cpu_side    569233412                       # Cumulative packet size per connected master and slave (bytes)
system.tol2bus.pkt_size_system.cpu4.dcache.mem_side::system.l2.cpu_side    239941846                       # Cumulative packet size per connected master and slave (bytes)
system.tol2bus.pkt_size_system.cpu4.itb.walker.dma::system.l2.cpu_side       209376                       # Cumulative packet size per connected master and slave (bytes)
system.tol2bus.pkt_size_system.cpu4.dtb.walker.dma::system.l2.cpu_side       482340                       # Cumulative packet size per connected master and slave (bytes)
system.tol2bus.pkt_size_system.cpu5.icache.mem_side::system.l2.cpu_side    667702288                       # Cumulative packet size per connected master and slave (bytes)
system.tol2bus.pkt_size_system.cpu5.dcache.mem_side::system.l2.cpu_side    241787210                       # Cumulative packet size per connected master and slave (bytes)
system.tol2bus.pkt_size_system.cpu5.itb.walker.dma::system.l2.cpu_side        92004                       # Cumulative packet size per connected master and slave (bytes)
system.tol2bus.pkt_size_system.cpu5.dtb.walker.dma::system.l2.cpu_side       208768                       # Cumulative packet size per connected master and slave (bytes)
system.tol2bus.pkt_size_system.cpu6.icache.mem_side::system.l2.cpu_side    891396976                       # Cumulative packet size per connected master and slave (bytes)
system.tol2bus.pkt_size_system.cpu6.dcache.mem_side::system.l2.cpu_side    344585452                       # Cumulative packet size per connected master and slave (bytes)
system.tol2bus.pkt_size_system.cpu6.itb.walker.dma::system.l2.cpu_side       348016                       # Cumulative packet size per connected master and slave (bytes)
system.tol2bus.pkt_size_system.cpu6.dtb.walker.dma::system.l2.cpu_side       724396                       # Cumulative packet size per connected master and slave (bytes)
system.tol2bus.pkt_size_system.cpu7.icache.mem_side::system.l2.cpu_side   1043503864                       # Cumulative packet size per connected master and slave (bytes)
system.tol2bus.pkt_size_system.cpu7.dcache.mem_side::system.l2.cpu_side    391538194                       # Cumulative packet size per connected master and slave (bytes)
system.tol2bus.pkt_size_system.cpu7.itb.walker.dma::system.l2.cpu_side       201496                       # Cumulative packet size per connected master and slave (bytes)
system.tol2bus.pkt_size_system.cpu7.dtb.walker.dma::system.l2.cpu_side       432724                       # Cumulative packet size per connected master and slave (bytes)
system.tol2bus.pkt_size::total             6087480918                       # Cumulative packet size per connected master and slave (bytes)
system.tol2bus.snoops                          185496                       # Total snoops (count)
system.tol2bus.snoop_fanout::samples         27301576                       # Request fanout histogram
system.tol2bus.snoop_fanout::mean           47.006685                       # Request fanout histogram
system.tol2bus.snoop_fanout::stdev           0.081488                       # Request fanout histogram
system.tol2bus.snoop_fanout::underflows             0      0.00%      0.00% # Request fanout histogram
system.tol2bus.snoop_fanout::0                      0      0.00%      0.00% # Request fanout histogram
system.tol2bus.snoop_fanout::1                      0      0.00%      0.00% # Request fanout histogram
system.tol2bus.snoop_fanout::2                      0      0.00%      0.00% # Request fanout histogram
system.tol2bus.snoop_fanout::3                      0      0.00%      0.00% # Request fanout histogram
system.tol2bus.snoop_fanout::4                      0      0.00%      0.00% # Request fanout histogram
system.tol2bus.snoop_fanout::5                      0      0.00%      0.00% # Request fanout histogram
system.tol2bus.snoop_fanout::6                      0      0.00%      0.00% # Request fanout histogram
system.tol2bus.snoop_fanout::7                      0      0.00%      0.00% # Request fanout histogram
system.tol2bus.snoop_fanout::8                      0      0.00%      0.00% # Request fanout histogram
system.tol2bus.snoop_fanout::9                      0      0.00%      0.00% # Request fanout histogram
system.tol2bus.snoop_fanout::10                     0      0.00%      0.00% # Request fanout histogram
system.tol2bus.snoop_fanout::11                     0      0.00%      0.00% # Request fanout histogram
system.tol2bus.snoop_fanout::12                     0      0.00%      0.00% # Request fanout histogram
system.tol2bus.snoop_fanout::13                     0      0.00%      0.00% # Request fanout histogram
system.tol2bus.snoop_fanout::14                     0      0.00%      0.00% # Request fanout histogram
system.tol2bus.snoop_fanout::15                     0      0.00%      0.00% # Request fanout histogram
system.tol2bus.snoop_fanout::16                     0      0.00%      0.00% # Request fanout histogram
system.tol2bus.snoop_fanout::17                     0      0.00%      0.00% # Request fanout histogram
system.tol2bus.snoop_fanout::18                     0      0.00%      0.00% # Request fanout histogram
system.tol2bus.snoop_fanout::19                     0      0.00%      0.00% # Request fanout histogram
system.tol2bus.snoop_fanout::20                     0      0.00%      0.00% # Request fanout histogram
system.tol2bus.snoop_fanout::21                     0      0.00%      0.00% # Request fanout histogram
system.tol2bus.snoop_fanout::22                     0      0.00%      0.00% # Request fanout histogram
system.tol2bus.snoop_fanout::23                     0      0.00%      0.00% # Request fanout histogram
system.tol2bus.snoop_fanout::24                     0      0.00%      0.00% # Request fanout histogram
system.tol2bus.snoop_fanout::25                     0      0.00%      0.00% # Request fanout histogram
system.tol2bus.snoop_fanout::26                     0      0.00%      0.00% # Request fanout histogram
system.tol2bus.snoop_fanout::27                     0      0.00%      0.00% # Request fanout histogram
system.tol2bus.snoop_fanout::28                     0      0.00%      0.00% # Request fanout histogram
system.tol2bus.snoop_fanout::29                     0      0.00%      0.00% # Request fanout histogram
system.tol2bus.snoop_fanout::30                     0      0.00%      0.00% # Request fanout histogram
system.tol2bus.snoop_fanout::31                     0      0.00%      0.00% # Request fanout histogram
system.tol2bus.snoop_fanout::32                     0      0.00%      0.00% # Request fanout histogram
system.tol2bus.snoop_fanout::33                     0      0.00%      0.00% # Request fanout histogram
system.tol2bus.snoop_fanout::34                     0      0.00%      0.00% # Request fanout histogram
system.tol2bus.snoop_fanout::35                     0      0.00%      0.00% # Request fanout histogram
system.tol2bus.snoop_fanout::36                     0      0.00%      0.00% # Request fanout histogram
system.tol2bus.snoop_fanout::37                     0      0.00%      0.00% # Request fanout histogram
system.tol2bus.snoop_fanout::38                     0      0.00%      0.00% # Request fanout histogram
system.tol2bus.snoop_fanout::39                     0      0.00%      0.00% # Request fanout histogram
system.tol2bus.snoop_fanout::40                     0      0.00%      0.00% # Request fanout histogram
system.tol2bus.snoop_fanout::41                     0      0.00%      0.00% # Request fanout histogram
system.tol2bus.snoop_fanout::42                     0      0.00%      0.00% # Request fanout histogram
system.tol2bus.snoop_fanout::43                     0      0.00%      0.00% # Request fanout histogram
system.tol2bus.snoop_fanout::44                     0      0.00%      0.00% # Request fanout histogram
system.tol2bus.snoop_fanout::45                     0      0.00%      0.00% # Request fanout histogram
system.tol2bus.snoop_fanout::46                     0      0.00%      0.00% # Request fanout histogram
system.tol2bus.snoop_fanout::47              27119065     99.33%     99.33% # Request fanout histogram
system.tol2bus.snoop_fanout::48                182511      0.67%    100.00% # Request fanout histogram
system.tol2bus.snoop_fanout::overflows              0      0.00%    100.00% # Request fanout histogram
system.tol2bus.snoop_fanout::min_value             47                       # Request fanout histogram
system.tol2bus.snoop_fanout::max_value             48                       # Request fanout histogram
system.tol2bus.snoop_fanout::total           27301576                       # Request fanout histogram
system.membus.trans_dist::ReadReq          1121200372                       # Transaction distribution
system.membus.trans_dist::ReadResp         1121200390                       # Transaction distribution
system.membus.trans_dist::WriteReq              51214                       # Transaction distribution
system.membus.trans_dist::WriteResp             51214                       # Transaction distribution
system.membus.trans_dist::Writeback           1373711                       # Transaction distribution
system.membus.trans_dist::SoftPFReq                18                       # Transaction distribution
system.membus.trans_dist::SoftPFResp               18                       # Transaction distribution
system.membus.trans_dist::WriteInvalidateReq       174280                       # Transaction distribution
system.membus.trans_dist::WriteInvalidateResp       174280                       # Transaction distribution
system.membus.trans_dist::UpgradeReq           316165                       # Transaction distribution
system.membus.trans_dist::SCUpgradeReq         216784                       # Transaction distribution
system.membus.trans_dist::UpgradeResp          143539                       # Transaction distribution
system.membus.trans_dist::ReadExReq           1202636                       # Transaction distribution
system.membus.trans_dist::ReadExResp          1070941                       # Transaction distribution
system.membus.trans_dist::LoadLockedReq            18                       # Transaction distribution
system.membus.trans_dist::StoreCondReq             18                       # Transaction distribution
system.membus.trans_dist::StoreCondResp            18                       # Transaction distribution
system.membus.pkt_count_system.iocache.mem_side::system.mem_ctrls.port       365022                       # Packet count per connected master and slave (bytes)
system.membus.pkt_count_system.iocache.mem_side::total       365022                       # Packet count per connected master and slave (bytes)
system.membus.pkt_count_system.l2.mem_side::system.bridge.slave       159188                       # Packet count per connected master and slave (bytes)
system.membus.pkt_count_system.l2.mem_side::system.realview.nvmem.port          178                       # Packet count per connected master and slave (bytes)
system.membus.pkt_count_system.l2.mem_side::system.realview.gic.pio        46818                       # Packet count per connected master and slave (bytes)
system.membus.pkt_count_system.l2.mem_side::system.mem_ctrls.port   2246604410                       # Packet count per connected master and slave (bytes)
system.membus.pkt_count_system.l2.mem_side::total   2246810594                       # Packet count per connected master and slave (bytes)
system.membus.pkt_count::total             2247175616                       # Packet count per connected master and slave (bytes)
system.membus.pkt_size_system.iocache.mem_side::system.mem_ctrls.port     11680704                       # Cumulative packet size per connected master and slave (bytes)
system.membus.pkt_size_system.iocache.mem_side::total     11680704                       # Cumulative packet size per connected master and slave (bytes)
system.membus.pkt_size_system.l2.mem_side::system.bridge.slave       193668                       # Cumulative packet size per connected master and slave (bytes)
system.membus.pkt_size_system.l2.mem_side::system.realview.nvmem.port          356                       # Cumulative packet size per connected master and slave (bytes)
system.membus.pkt_size_system.l2.mem_side::system.realview.gic.pio        93636                       # Cumulative packet size per connected master and slave (bytes)
system.membus.pkt_size_system.l2.mem_side::system.mem_ctrls.port   4697548438                       # Cumulative packet size per connected master and slave (bytes)
system.membus.pkt_size_system.l2.mem_side::total   4697836098                       # Cumulative packet size per connected master and slave (bytes)
system.membus.pkt_size::total              4709516802                       # Cumulative packet size per connected master and slave (bytes)
system.membus.snoops                                0                       # Total snoops (count)
system.membus.snoop_fanout::samples           4233959                       # Request fanout histogram
system.membus.snoop_fanout::mean                    1                       # Request fanout histogram
system.membus.snoop_fanout::stdev                   0                       # Request fanout histogram
system.membus.snoop_fanout::underflows              0      0.00%      0.00% # Request fanout histogram
system.membus.snoop_fanout::0                       0      0.00%      0.00% # Request fanout histogram
system.membus.snoop_fanout::1                 4233959    100.00%    100.00% # Request fanout histogram
system.membus.snoop_fanout::2                       0      0.00%    100.00% # Request fanout histogram
system.membus.snoop_fanout::overflows               0      0.00%    100.00% # Request fanout histogram
system.membus.snoop_fanout::min_value               1                       # Request fanout histogram
[...]
system.cpu7.icache.tags.occ_blocks::cpu7.inst          512                       # Average occupied blocks per requestor
system.cpu7.icache.tags.occ_percent::cpu7.inst            1                       # Average percentage of cache occupancy
system.cpu7.icache.tags.occ_percent::total            1                       # Average percentage of cache occupancy
system.cpu7.icache.tags.occ_task_id_blocks::1024          512                       # Occupied blocks per task id
system.cpu7.icache.tags.age_task_id_blocks_1024::0          308                       # Occupied blocks per task id
system.cpu7.icache.tags.age_task_id_blocks_1024::1          135                       # Occupied blocks per task id
system.cpu7.icache.tags.age_task_id_blocks_1024::2           69                       # Occupied blocks per task id
system.cpu7.icache.tags.occ_task_id_percent::1024            1                       # Percentage of cache occupancy per task id
system.cpu7.icache.tags.tag_accesses       2782898024                       # Number of tag accesses
system.cpu7.icache.tags.data_accesses      2782898024                       # Number of data accesses
system.cpu7.icache.ReadReq_hits::cpu7.inst   1364010871                       # number of ReadReq hits
system.cpu7.icache.ReadReq_hits::total     1364010871                       # number of ReadReq hits
system.cpu7.icache.demand_hits::cpu7.inst   1364010871                       # number of demand (read+write) hits
system.cpu7.icache.demand_hits::total      1364010871                       # number of demand (read+write) hits
system.cpu7.icache.overall_hits::cpu7.inst   1364010871                       # number of overall hits
system.cpu7.icache.overall_hits::total     1364010871                       # number of overall hits
system.cpu7.icache.ReadReq_misses::cpu7.inst     18292094                       # number of ReadReq misses
system.cpu7.icache.ReadReq_misses::total     18292094                       # number of ReadReq misses
system.cpu7.icache.demand_misses::cpu7.inst     18292094                       # number of demand (read+write) misses
system.cpu7.icache.demand_misses::total      18292094                       # number of demand (read+write) misses
system.cpu7.icache.overall_misses::cpu7.inst     18292094                       # number of overall misses
system.cpu7.icache.overall_misses::total     18292094                       # number of overall misses
system.cpu7.icache.ReadReq_accesses::cpu7.inst   1382302965                       # number of ReadReq accesses(hits+misses)
system.cpu7.icache.ReadReq_accesses::total   1382302965                       # number of ReadReq accesses(hits+misses)
system.cpu7.icache.demand_accesses::cpu7.inst   1382302965                       # number of demand (read+write) accesses
system.cpu7.icache.demand_accesses::total   1382302965                       # number of demand (read+write) accesses
system.cpu7.icache.overall_accesses::cpu7.inst   1382302965                       # number of overall (read+write) accesses
system.cpu7.icache.overall_accesses::total   1382302965                       # number of overall (read+write) accesses
system.cpu7.icache.ReadReq_miss_rate::cpu7.inst     0.013233                       # miss rate for ReadReq accesses
system.cpu7.icache.ReadReq_miss_rate::total     0.013233                       # miss rate for ReadReq accesses
system.cpu7.icache.demand_miss_rate::cpu7.inst     0.013233                       # miss rate for demand accesses
system.cpu7.icache.demand_miss_rate::total     0.013233                       # miss rate for demand accesses
system.cpu7.icache.overall_miss_rate::cpu7.inst     0.013233                       # miss rate for overall accesses
system.cpu7.icache.overall_miss_rate::total     0.013233                       # miss rate for overall accesses
system.cpu7.icache.blocked_cycles::no_mshrs            0                       # number of cycles access was blocked
system.cpu7.icache.blocked_cycles::no_targets            0                       # number of cycles access was blocked
system.cpu7.icache.blocked::no_mshrs                0                       # number of cycles access was blocked
system.cpu7.icache.blocked::no_targets              0                       # number of cycles access was blocked
system.cpu7.icache.avg_blocked_cycles::no_mshrs          nan                       # average number of cycles each access was blocked
system.cpu7.icache.avg_blocked_cycles::no_targets          nan                       # average number of cycles each access was blocked
system.cpu7.icache.fast_writes                      0                       # number of fast writes performed
system.cpu7.icache.cache_copies                     0                       # number of cache copies performed
system.cpu7.icache.no_allocate_misses               0                       # Number of misses that were no-allocate
system.cpu7.dcache.tags.replacements         15420054                       # number of replacements
system.cpu7.dcache.tags.tagsinuse         1007.795640                       # Cycle average of tags in use
system.cpu7.dcache.tags.total_refs          613171856                       # Total number of references to valid blocks.
system.cpu7.dcache.tags.sampled_refs         15421078                       # Sample count of references to valid blocks.
system.cpu7.dcache.tags.avg_refs            39.761932                       # Average number of references to valid blocks.
system.cpu7.dcache.tags.warmup_cycle                0                       # Cycle when the warmup percentage was hit.
system.cpu7.dcache.tags.occ_blocks::cpu7.data  1007.795640                       # Average occupied blocks per requestor
system.cpu7.dcache.tags.occ_percent::cpu7.data     0.984175                       # Average percentage of cache occupancy
system.cpu7.dcache.tags.occ_percent::total     0.984175                       # Average percentage of cache occupancy
system.cpu7.dcache.tags.occ_task_id_blocks::1024         1024                       # Occupied blocks per task id
system.cpu7.dcache.tags.age_task_id_blocks_1024::0          305                       # Occupied blocks per task id
system.cpu7.dcache.tags.age_task_id_blocks_1024::1          654                       # Occupied blocks per task id
system.cpu7.dcache.tags.age_task_id_blocks_1024::2           64                       # Occupied blocks per task id
system.cpu7.dcache.tags.age_task_id_blocks_1024::3            1                       # Occupied blocks per task id
system.cpu7.dcache.tags.occ_task_id_percent::1024            1                       # Percentage of cache occupancy per task id
system.cpu7.dcache.tags.tag_accesses       1272462656                       # Number of tag accesses
system.cpu7.dcache.tags.data_accesses      1272462656                       # Number of data accesses
system.cpu7.dcache.ReadReq_hits::cpu7.data    331949024                       # number of ReadReq hits
system.cpu7.dcache.ReadReq_hits::total      331949024                       # number of ReadReq hits
system.cpu7.dcache.WriteReq_hits::cpu7.data    266393154                       # number of WriteReq hits
system.cpu7.dcache.WriteReq_hits::total     266393154                       # number of WriteReq hits
system.cpu7.dcache.SoftPFReq_hits::cpu7.data      3915511                       # number of SoftPFReq hits
system.cpu7.dcache.SoftPFReq_hits::total      3915511                       # number of SoftPFReq hits
system.cpu7.dcache.LoadLockedReq_hits::cpu7.data      5259564                       # number of LoadLockedReq hits
system.cpu7.dcache.LoadLockedReq_hits::total      5259564                       # number of LoadLockedReq hits
system.cpu7.dcache.StoreCondReq_hits::cpu7.data      5285601                       # number of StoreCondReq hits
system.cpu7.dcache.StoreCondReq_hits::total      5285601                       # number of StoreCondReq hits
system.cpu7.dcache.demand_hits::cpu7.data    598342178                       # number of demand (read+write) hits
system.cpu7.dcache.demand_hits::total       598342178                       # number of demand (read+write) hits
system.cpu7.dcache.overall_hits::cpu7.data    602257689                       # number of overall hits
system.cpu7.dcache.overall_hits::total      602257689                       # number of overall hits
system.cpu7.dcache.ReadReq_misses::cpu7.data      7638782                       # number of ReadReq misses
system.cpu7.dcache.ReadReq_misses::total      7638782                       # number of ReadReq misses
system.cpu7.dcache.WriteReq_misses::cpu7.data      5360585                       # number of WriteReq misses
system.cpu7.dcache.WriteReq_misses::total      5360585                       # number of WriteReq misses
system.cpu7.dcache.SoftPFReq_misses::cpu7.data      2625496                       # number of SoftPFReq misses
system.cpu7.dcache.SoftPFReq_misses::total      2625496                       # number of SoftPFReq misses
system.cpu7.dcache.LoadLockedReq_misses::cpu7.data        69178                       # number of LoadLockedReq misses
system.cpu7.dcache.LoadLockedReq_misses::total        69178                       # number of LoadLockedReq misses
system.cpu7.dcache.StoreCondReq_misses::cpu7.data         8417                       # number of StoreCondReq misses
system.cpu7.dcache.StoreCondReq_misses::total         8417                       # number of StoreCondReq misses
system.cpu7.dcache.demand_misses::cpu7.data     12999367                       # number of demand (read+write) misses
system.cpu7.dcache.demand_misses::total      12999367                       # number of demand (read+write) misses
system.cpu7.dcache.overall_misses::cpu7.data     15624863                       # number of overall misses
system.cpu7.dcache.overall_misses::total     15624863                       # number of overall misses
system.cpu7.dcache.ReadReq_accesses::cpu7.data    339587806                       # number of ReadReq accesses(hits+misses)
system.cpu7.dcache.ReadReq_accesses::total    339587806                       # number of ReadReq accesses(hits+misses)
system.cpu7.dcache.WriteReq_accesses::cpu7.data    271753739                       # number of WriteReq accesses(hits+misses)
system.cpu7.dcache.WriteReq_accesses::total    271753739                       # number of WriteReq accesses(hits+misses)
system.cpu7.dcache.SoftPFReq_accesses::cpu7.data      6541007                       # number of SoftPFReq accesses(hits+misses)
system.cpu7.dcache.SoftPFReq_accesses::total      6541007                       # number of SoftPFReq accesses(hits+misses)
system.cpu7.dcache.LoadLockedReq_accesses::cpu7.data      5328742                       # number of LoadLockedReq accesses(hits+misses)
system.cpu7.dcache.LoadLockedReq_accesses::total      5328742                       # number of LoadLockedReq accesses(hits+misses)
system.cpu7.dcache.StoreCondReq_accesses::cpu7.data      5294018                       # number of StoreCondReq accesses(hits+misses)
system.cpu7.dcache.StoreCondReq_accesses::total      5294018                       # number of StoreCondReq accesses(hits+misses)
system.cpu7.dcache.demand_accesses::cpu7.data    611341545                       # number of demand (read+write) accesses
system.cpu7.dcache.demand_accesses::total    611341545                       # number of demand (read+write) accesses
system.cpu7.dcache.overall_accesses::cpu7.data    617882552                       # number of overall (read+write) accesses
system.cpu7.dcache.overall_accesses::total    617882552                       # number of overall (read+write) accesses
system.cpu7.dcache.ReadReq_miss_rate::cpu7.data     0.022494                       # miss rate for ReadReq accesses
system.cpu7.dcache.ReadReq_miss_rate::total     0.022494                       # miss rate for ReadReq accesses
system.cpu7.dcache.WriteReq_miss_rate::cpu7.data     0.019726                       # miss rate for WriteReq accesses
system.cpu7.dcache.WriteReq_miss_rate::total     0.019726                       # miss rate for WriteReq accesses
system.cpu7.dcache.SoftPFReq_miss_rate::cpu7.data     0.401390                       # miss rate for SoftPFReq accesses
system.cpu7.dcache.SoftPFReq_miss_rate::total     0.401390                       # miss rate for SoftPFReq accesses
system.cpu7.dcache.LoadLockedReq_miss_rate::cpu7.data     0.012982                       # miss rate for LoadLockedReq accesses
system.cpu7.dcache.LoadLockedReq_miss_rate::total     0.012982                       # miss rate for LoadLockedReq accesses
system.cpu7.dcache.StoreCondReq_miss_rate::cpu7.data     0.001590                       # miss rate for StoreCondReq accesses
system.cpu7.dcache.StoreCondReq_miss_rate::total     0.001590                       # miss rate for StoreCondReq accesses
system.cpu7.dcache.demand_miss_rate::cpu7.data     0.021264                       # miss rate for demand accesses
system.cpu7.dcache.demand_miss_rate::total     0.021264                       # miss rate for demand accesses
system.cpu7.dcache.overall_miss_rate::cpu7.data     0.025288                       # miss rate for overall accesses
system.cpu7.dcache.overall_miss_rate::total     0.025288                       # miss rate for overall accesses
system.cpu7.dcache.blocked_cycles::no_mshrs            0                       # number of cycles access was blocked
system.cpu7.dcache.blocked_cycles::no_targets            0                       # number of cycles access was blocked
system.cpu7.dcache.blocked::no_mshrs                0                       # number of cycles access was blocked
system.cpu7.dcache.blocked::no_targets              0                       # number of cycles access was blocked
system.cpu7.dcache.avg_blocked_cycles::no_mshrs          nan                       # average number of cycles each access was blocked
system.cpu7.dcache.avg_blocked_cycles::no_targets          nan                       # average number of cycles each access was blocked
system.cpu7.dcache.fast_writes                      0                       # number of fast writes performed
system.cpu7.dcache.cache_copies                     0                       # number of cache copies performed
system.cpu7.dcache.writebacks::writebacks      9347209                       # number of writebacks
system.cpu7.dcache.writebacks::total          9347209                       # number of writebacks
system.cpu7.dcache.no_allocate_misses               0                       # Number of misses that were no-allocate
system.iocache.tags.replacements                82055                       # number of replacements
system.iocache.tags.tagsinuse               15.002692                       # Cycle average of tags in use
system.iocache.tags.total_refs                      0                       # Total number of references to valid blocks.
system.iocache.tags.sampled_refs                82063                       # Sample count of references to valid blocks.
system.iocache.tags.avg_refs                        0                       # Average number of references to valid blocks.
system.iocache.tags.warmup_cycle                    0                       # Cycle when the warmup percentage was hit.
system.iocache.tags.occ_blocks::realview.ide    15.002692                       # Average occupied blocks per requestor
system.iocache.tags.occ_percent::realview.ide     0.937668                       # Average percentage of cache occupancy
system.iocache.tags.occ_percent::total       0.937668                       # Average percentage of cache occupancy
system.iocache.tags.occ_task_id_blocks::1023            8                       # Occupied blocks per task id
system.iocache.tags.age_task_id_blocks_1023::4            8                       # Occupied blocks per task id
system.iocache.tags.occ_task_id_percent::1023     0.500000                       # Percentage of cache occupancy per task id
system.iocache.tags.tag_accesses               738495                       # Number of tag accesses
system.iocache.tags.data_accesses              738495                       # Number of data accesses
system.iocache.WriteInvalidateReq_hits::realview.ide        81360                       # number of WriteInvalidateReq hits
system.iocache.WriteInvalidateReq_hits::total        81360                       # number of WriteInvalidateReq hits
system.iocache.ReadReq_misses::realview.ide          695                       # number of ReadReq misses
system.iocache.ReadReq_misses::total              695                       # number of ReadReq misses
system.iocache.demand_misses::realview.ide          695                       # number of demand (read+write) misses
system.iocache.demand_misses::total               695                       # number of demand (read+write) misses
system.iocache.overall_misses::realview.ide          695                       # number of overall misses
system.iocache.overall_misses::total              695                       # number of overall misses
system.iocache.ReadReq_accesses::realview.ide          695                       # number of ReadReq accesses(hits+misses)
system.iocache.ReadReq_accesses::total            695                       # number of ReadReq accesses(hits+misses)
system.iocache.WriteInvalidateReq_accesses::realview.ide        81360                       # number of WriteInvalidateReq accesses(hits+misses)
system.iocache.WriteInvalidateReq_accesses::total        81360                       # number of WriteInvalidateReq accesses(hits+misses)
system.iocache.demand_accesses::realview.ide          695                       # number of demand (read+write) accesses
system.iocache.demand_accesses::total             695                       # number of demand (read+write) accesses
system.iocache.overall_accesses::realview.ide          695                       # number of overall (read+write) accesses
system.iocache.overall_accesses::total            695                       # number of overall (read+write) accesses
system.iocache.ReadReq_miss_rate::realview.ide            1                       # miss rate for ReadReq accesses
system.iocache.ReadReq_miss_rate::total             1                       # miss rate for ReadReq accesses
system.iocache.demand_miss_rate::realview.ide            1                       # miss rate for demand accesses
system.iocache.demand_miss_rate::total              1                       # miss rate for demand accesses
system.iocache.overall_miss_rate::realview.ide            1                       # miss rate for overall accesses
system.iocache.overall_miss_rate::total             1                       # miss rate for overall accesses
system.iocache.blocked_cycles::no_mshrs             0                       # number of cycles access was blocked
system.iocache.blocked_cycles::no_targets            0                       # number of cycles access was blocked
system.iocache.blocked::no_mshrs                    0                       # number of cycles access was blocked
system.iocache.blocked::no_targets                  0                       # number of cycles access was blocked
system.iocache.avg_blocked_cycles::no_mshrs          nan                       # average number of cycles each access was blocked
system.iocache.avg_blocked_cycles::no_targets          nan                       # average number of cycles each access was blocked
system.iocache.fast_writes                      81360                       # number of fast writes performed
system.iocache.cache_copies                         0                       # number of cache copies performed
system.iocache.no_allocate_misses                   0                       # Number of misses that were no-allocate

---------- End Simulation Statistics   ----------
