
---------- Begin Simulation Statistics ----------
sim_seconds                                  3.232256                       # Number of seconds simulated
sim_ticks                                3232256243500                       # Number of ticks simulated
final_tick                               3232256243500                       # Number of ticks from beginning of simulation (restored from checkpoints and never reset)
sim_freq                                 1000000000000                       # Frequency of simulated ticks
host_inst_rate                                1413477                       # Simulator instruction rate (inst/s)
host_op_rate                                  1607679                       # Simulator op (including micro ops) rate (op/s)
host_tick_rate                             2442743253                       # Simulator tick rate (ticks/s)
host_mem_usage                                 879712                       # Number of bytes of host memory used
host_seconds                                  1323.21                       # Real time elapsed on the host
sim_insts                                  1870323723                       # Number of instructions simulated
sim_ops                                    2127292815                       # Number of ops (including micro ops) simulated
system.voltage_domain.voltage                       1                       # Voltage in Volts
system.clk_domain.clock                          1000                       # Clock period in ticks
system.realview.nvmem.bytes_read::cpu0.inst           20                       # Number of bytes read from this memory
system.realview.nvmem.bytes_read::cpu1.inst           48                       # Number of bytes read from this memory
system.realview.nvmem.bytes_read::cpu2.inst           48                       # Number of bytes read from this memory
system.realview.nvmem.bytes_read::cpu3.inst           48                       # Number of bytes read from this memory
system.realview.nvmem.bytes_read::cpu4.inst           48                       # Number of bytes read from this memory
system.realview.nvmem.bytes_read::cpu5.inst           48                       # Number of bytes read from this memory
system.realview.nvmem.bytes_read::cpu6.inst           48                       # Number of bytes read from this memory
system.realview.nvmem.bytes_read::cpu7.inst           48                       # Number of bytes read from this memory
system.realview.nvmem.bytes_read::total           356                       # Number of bytes read from this memory
system.realview.nvmem.bytes_inst_read::cpu0.inst           20                       # Number of instructions bytes read from this memory
system.realview.nvmem.bytes_inst_read::cpu1.inst           48                       # Number of instructions bytes read from this memory
system.realview.nvmem.bytes_inst_read::cpu2.inst           48                       # Number of instructions bytes read from this memory
system.realview.nvmem.bytes_inst_read::cpu3.inst           48                       # Number of instructions bytes read from this memory
system.realview.nvmem.bytes_inst_read::cpu4.inst           48                       # Number of instructions bytes read from this memory
system.realview.nvmem.bytes_inst_read::cpu5.inst           48                       # Number of instructions bytes read from this memory
system.realview.nvmem.bytes_inst_read::cpu6.inst           48                       # Number of instructions bytes read from this memory
system.realview.nvmem.bytes_inst_read::cpu7.inst           48                       # Number of instructions bytes read from this memory
system.realview.nvmem.bytes_inst_read::total          356                       # Number of instructions bytes read from this memory
system.realview.nvmem.num_reads::cpu0.inst            5                       # Number of read requests responded to by this memory
system.realview.nvmem.num_reads::cpu1.inst           12                       # Number of read requests responded to by this memory
system.realview.nvmem.num_reads::cpu2.inst           12                       # Number of read requests responded to by this memory
system.realview.nvmem.num_reads::cpu3.inst           12                       # Number of read requests responded to by this memory
system.realview.nvmem.num_reads::cpu4.inst           12                       # Number of read requests responded to by this memory
system.realview.nvmem.num_reads::cpu5.inst           12                       # Number of read requests responded to by this memory
system.realview.nvmem.num_reads::cpu6.inst           12                       # Number of read requests responded to by this memory
system.realview.nvmem.num_reads::cpu7.inst           12                       # Number of read requests responded to by this memory
system.realview.nvmem.num_reads::total             89                       # Number of read requests responded to by this memory
system.realview.nvmem.bw_read::cpu0.inst            6                       # Total read bandwidth from this memory (bytes/s)
system.realview.nvmem.bw_read::cpu1.inst           15                       # Total read bandwidth from this memory (bytes/s)
system.realview.nvmem.bw_read::cpu2.inst           15                       # Total read bandwidth from this memory (bytes/s)
system.realview.nvmem.bw_read::cpu3.inst           15                       # Total read bandwidth from this memory (bytes/s)
system.realview.nvmem.bw_read::cpu4.inst           15                       # Total read bandwidth from this memory (bytes/s)
system.realview.nvmem.bw_read::cpu5.inst           15                       # Total read bandwidth from this memory (bytes/s)
system.realview.nvmem.bw_read::cpu6.inst           15                       # Total read bandwidth from this memory (bytes/s)
system.realview.nvmem.bw_read::cpu7.inst           15                       # Total read bandwidth from this memory (bytes/s)
system.realview.nvmem.bw_read::total              110                       # Total read bandwidth from this memory (bytes/s)
system.realview.nvmem.bw_inst_read::cpu0.inst            6                       # Instruction read bandwidth from this memory (bytes/s)
system.realview.nvmem.bw_inst_read::cpu1.inst           15                       # Instruction read bandwidth from this memory (bytes/s)
system.realview.nvmem.bw_inst_read::cpu2.inst           15                       # Instruction read bandwidth from this memory (bytes/s)
system.realview.nvmem.bw_inst_read::cpu3.inst           15                       # Instruction read bandwidth from this memory (bytes/s)
system.realview.nvmem.bw_inst_read::cpu4.inst           15                       # Instruction read bandwidth from this memory (bytes/s)
system.realview.nvmem.bw_inst_read::cpu5.inst           15                       # Instruction read bandwidth from this memory (bytes/s)
system.realview.nvmem.bw_inst_read::cpu6.inst           15                       # Instruction read bandwidth from this memory (bytes/s)
system.realview.nvmem.bw_inst_read::cpu7.inst           15                       # Instruction read bandwidth from this memory (bytes/s)
system.realview.nvmem.bw_inst_read::total          110                       # Instruction read bandwidth from this memory (bytes/s)
system.realview.nvmem.bw_total::cpu0.inst            6                       # Total bandwidth to/from this memory (bytes/s)
system.realview.nvmem.bw_total::cpu1.inst           15                       # Total bandwidth to/from this memory (bytes/s)
system.realview.nvmem.bw_total::cpu2.inst           15                       # Total bandwidth to/from this memory (bytes/s)
system.realview.nvmem.bw_total::cpu3.inst           15                       # Total bandwidth to/from this memory (bytes/s)
system.realview.nvmem.bw_total::cpu4.inst           15                       # Total bandwidth to/from this memory (bytes/s)
system.realview.nvmem.bw_total::cpu5.inst           15                       # Total bandwidth to/from this memory (bytes/s)
system.realview.nvmem.bw_total::cpu6.inst           15                       # Total bandwidth to/from this memory (bytes/s)
system.realview.nvmem.bw_total::cpu7.inst           15                       # Total bandwidth to/from this memory (bytes/s)
system.realview.nvmem.bw_total::total             110                       # Total bandwidth to/from this memory (bytes/s)
system.mem_ctrls.bytes_read::realview.ide       314880                       # Number of bytes read from this memory
system.mem_ctrls.bytes_read::cpu0.dtb.walker        70336                       # Number of bytes read from this memory
system.mem_ctrls.bytes_read::cpu0.itb.walker        65088                       # Number of bytes read from this memory
system.mem_ctrls.bytes_read::cpu0.inst        4443556                       # Number of bytes read from this memory
system.mem_ctrls.bytes_read::cpu0.data       38055664                       # Number of bytes read from this memory
system.mem_ctrls.bytes_read::cpu1.dtb.walker        55488                       # Number of bytes read from this memory
system.mem_ctrls.bytes_read::cpu1.itb.walker        57152                       # Number of bytes read from this memory
system.mem_ctrls.bytes_read::cpu1.inst        1542880                       # Number of bytes read from this memory
system.mem_ctrls.bytes_read::cpu1.data       13738043                       # Number of bytes read from this memory
system.mem_ctrls.bytes_read::cpu2.dtb.walker        61504                       # Number of bytes read from this memory
system.mem_ctrls.bytes_read::cpu2.itb.walker        65472                       # Number of bytes read from this memory
system.mem_ctrls.bytes_read::cpu2.inst      162084852                       # Number of bytes read from this memory
system.mem_ctrls.bytes_read::cpu2.data       66056535                       # Number of bytes read from this memory
system.mem_ctrls.bytes_read::cpu3.dtb.walker        69632                       # Number of bytes read from this memory
system.mem_ctrls.bytes_read::cpu3.itb.walker        74752                       # Number of bytes read from this memory
system.mem_ctrls.bytes_read::cpu3.inst      321569656                       # Number of bytes read from this memory
system.mem_ctrls.bytes_read::cpu3.data      119240707                       # Number of bytes read from this memory
system.mem_ctrls.bytes_read::cpu4.dtb.walker        55680                       # Number of bytes read from this memory
system.mem_ctrls.bytes_read::cpu4.itb.walker        57344                       # Number of bytes read from this memory
system.mem_ctrls.bytes_read::cpu4.inst      481983316                       # Number of bytes read from this memory
system.mem_ctrls.bytes_read::cpu4.data      172252151                       # Number of bytes read from this memory
system.mem_ctrls.bytes_read::cpu5.dtb.walker        30784                       # Number of bytes read from this memory
system.mem_ctrls.bytes_read::cpu5.itb.walker        18624                       # Number of bytes read from this memory
system.mem_ctrls.bytes_read::cpu5.inst      640583584                       # Number of bytes read from this memory
system.mem_ctrls.bytes_read::cpu5.data      217504059                       # Number of bytes read from this memory
system.mem_ctrls.bytes_read::cpu6.dtb.walker        35200                       # Number of bytes read from this memory
system.mem_ctrls.bytes_read::cpu6.itb.walker        41728                       # Number of bytes read from this memory
system.mem_ctrls.bytes_read::cpu6.inst      801714240                       # Number of bytes read from this memory
system.mem_ctrls.bytes_read::cpu6.data      275602203                       # Number of bytes read from this memory
system.mem_ctrls.bytes_read::cpu7.dtb.walker        53888                       # Number of bytes read from this memory
system.mem_ctrls.bytes_read::cpu7.itb.walker        55424                       # Number of bytes read from this memory
system.mem_ctrls.bytes_read::cpu7.inst      961469448                       # Number of bytes read from this memory
system.mem_ctrls.bytes_read::cpu7.data      329701276                       # Number of bytes read from this memory
system.mem_ctrls.bytes_read::total         4608725146                       # Number of bytes read from this memory
system.mem_ctrls.bytes_inst_read::cpu0.inst      4443556                       # Number of instructions bytes read from this memory
system.mem_ctrls.bytes_inst_read::cpu1.inst      1542880                       # Number of instructions bytes read from this memory
system.mem_ctrls.bytes_inst_read::cpu2.inst    162084852                       # Number of instructions bytes read from this memory
system.mem_ctrls.bytes_inst_read::cpu3.inst    321569656                       # Number of instructions bytes read from this memory
system.mem_ctrls.bytes_inst_read::cpu4.inst    481983316                       # Number of instructions bytes read from this memory
system.mem_ctrls.bytes_inst_read::cpu5.inst    640583584                       # Number of instructions bytes read from this memory
system.mem_ctrls.bytes_inst_read::cpu6.inst    801714240                       # Number of instructions bytes read from this memory
system.mem_ctrls.bytes_inst_read::cpu7.inst    961469448                       # Number of instructions bytes read from this memory
system.mem_ctrls.bytes_inst_read::total    3375391532                       # Number of instructions bytes read from this memory
system.mem_ctrls.bytes_written::writebacks     87074816                       # Number of bytes written to this memory
system.mem_ctrls.bytes_written::realview.ide     10913280                       # Number of bytes written to this memory
system.mem_ctrls.bytes_written::cpu0.data        18064                       # Number of bytes written to this memory
system.mem_ctrls.bytes_written::cpu1.data           54                       # Number of bytes written to this memory
system.mem_ctrls.bytes_written::cpu2.data           54                       # Number of bytes written to this memory
system.mem_ctrls.bytes_written::cpu3.data           54                       # Number of bytes written to this memory
system.mem_ctrls.bytes_written::cpu4.data           54                       # Number of bytes written to this memory
system.mem_ctrls.bytes_written::cpu5.data           54                       # Number of bytes written to this memory
system.mem_ctrls.bytes_written::cpu6.data           54                       # Number of bytes written to this memory
system.mem_ctrls.bytes_written::cpu7.data           40                       # Number of bytes written to this memory
system.mem_ctrls.bytes_written::total        98006524                       # Number of bytes written to this memory
system.mem_ctrls.num_reads::realview.ide         4920                       # Number of read requests responded to by this memory
system.mem_ctrls.num_reads::cpu0.dtb.walker         1099                       # Number of read requests responded to by this memory
system.mem_ctrls.num_reads::cpu0.itb.walker         1017                       # Number of read requests responded to by this memory
system.mem_ctrls.num_reads::cpu0.inst           77884                       # Number of read requests responded to by this memory
system.mem_ctrls.num_reads::cpu0.data          595247                       # Number of read requests responded to by this memory
system.mem_ctrls.num_reads::cpu1.dtb.walker          867                       # Number of read requests responded to by this memory
system.mem_ctrls.num_reads::cpu1.itb.walker          893                       # Number of read requests responded to by this memory
system.mem_ctrls.num_reads::cpu1.inst           24265                       # Number of read requests responded to by this memory
system.mem_ctrls.num_reads::cpu1.data          214688                       # Number of read requests responded to by this memory
system.mem_ctrls.num_reads::cpu2.dtb.walker          961                       # Number of read requests responded to by this memory
system.mem_ctrls.num_reads::cpu2.itb.walker         1023                       # Number of read requests responded to by this memory
system.mem_ctrls.num_reads::cpu2.inst        40038363                       # Number of read requests responded to by this memory
system.mem_ctrls.num_reads::cpu2.data        13534041                       # Number of read requests responded to by this memory
system.mem_ctrls.num_reads::cpu3.dtb.walker         1088                       # Number of read requests responded to by this memory
system.mem_ctrls.num_reads::cpu3.itb.walker         1168                       # Number of read requests responded to by this memory
system.mem_ctrls.num_reads::cpu3.inst        80042074                       # Number of read requests responded to by this memory
system.mem_ctrls.num_reads::cpu3.data        26868964                       # Number of read requests responded to by this memory
system.mem_ctrls.num_reads::cpu4.dtb.walker          870                       # Number of read requests responded to by this memory
system.mem_ctrls.num_reads::cpu4.itb.walker          896                       # Number of read requests responded to by this memory
system.mem_ctrls.num_reads::cpu4.inst       120049774                       # Number of read requests responded to by this memory
system.mem_ctrls.num_reads::cpu4.data        40197680                       # Number of read requests responded to by this memory
system.mem_ctrls.num_reads::cpu5.dtb.walker          481                       # Number of read requests responded to by this memory
system.mem_ctrls.num_reads::cpu5.itb.walker          291                       # Number of read requests responded to by this memory
system.mem_ctrls.num_reads::cpu5.inst       160032391                       # Number of read requests responded to by this memory
system.mem_ctrls.num_reads::cpu5.data        53406237                       # Number of read requests responded to by this memory
system.mem_ctrls.num_reads::cpu6.dtb.walker          550                       # Number of read requests responded to by this memory
system.mem_ctrls.num_reads::cpu6.itb.walker          652                       # Number of read requests responded to by this memory
system.mem_ctrls.num_reads::cpu6.inst       200055825                       # Number of read requests responded to by this memory
system.mem_ctrls.num_reads::cpu6.data        66815943                       # Number of read requests responded to by this memory
system.mem_ctrls.num_reads::cpu7.dtb.walker          842                       # Number of read requests responded to by this memory
system.mem_ctrls.num_reads::cpu7.itb.walker          866                       # Number of read requests responded to by this memory
system.mem_ctrls.num_reads::cpu7.inst       240057762                       # Number of read requests responded to by this memory
system.mem_ctrls.num_reads::cpu7.data        80163155                       # Number of read requests responded to by this memory
system.mem_ctrls.num_reads::total          1122192777                       # Number of read requests responded to by this memory
system.mem_ctrls.num_writes::writebacks       1360544                       # Number of write requests responded to by this memory
system.mem_ctrls.num_writes::realview.ide       170520                       # Number of write requests responded to by this memory
system.mem_ctrls.num_writes::cpu0.data           4522                       # Number of write requests responded to by this memory
system.mem_ctrls.num_writes::cpu1.data             14                       # Number of write requests responded to by this memory
system.mem_ctrls.num_writes::cpu2.data             14                       # Number of write requests responded to by this memory
system.mem_ctrls.num_writes::cpu3.data             14                       # Number of write requests responded to by this memory
system.mem_ctrls.num_writes::cpu4.data             14                       # Number of write requests responded to by this memory
system.mem_ctrls.num_writes::cpu5.data             14                       # Number of write requests responded to by this memory
system.mem_ctrls.num_writes::cpu6.data             14                       # Number of write requests responded to by this memory
system.mem_ctrls.num_writes::cpu7.data             10                       # Number of write requests responded to by this memory
system.mem_ctrls.num_writes::total            1535680                       # Number of write requests responded to by this memory
system.mem_ctrls.bw_read::realview.ide          97418                       # Total read bandwidth from this memory (bytes/s)
system.mem_ctrls.bw_read::cpu0.dtb.walker        21761                       # Total read bandwidth from this memory (bytes/s)
system.mem_ctrls.bw_read::cpu0.itb.walker        20137                       # Total read bandwidth from this memory (bytes/s)
system.mem_ctrls.bw_read::cpu0.inst           1374754                       # Total read bandwidth from this memory (bytes/s)
system.mem_ctrls.bw_read::cpu0.data          11773715                       # Total read bandwidth from this memory (bytes/s)
system.mem_ctrls.bw_read::cpu1.dtb.walker        17167                       # Total read bandwidth from this memory (bytes/s)
system.mem_ctrls.bw_read::cpu1.itb.walker        17682                       # Total read bandwidth from this memory (bytes/s)
system.mem_ctrls.bw_read::cpu1.inst            477338                       # Total read bandwidth from this memory (bytes/s)
system.mem_ctrls.bw_read::cpu1.data           4250295                       # Total read bandwidth from this memory (bytes/s)
system.mem_ctrls.bw_read::cpu2.dtb.walker        19028                       # Total read bandwidth from this memory (bytes/s)
system.mem_ctrls.bw_read::cpu2.itb.walker        20256                       # Total read bandwidth from this memory (bytes/s)
system.mem_ctrls.bw_read::cpu2.inst          50146040                       # Total read bandwidth from this memory (bytes/s)
system.mem_ctrls.bw_read::cpu2.data          20436664                       # Total read bandwidth from this memory (bytes/s)
system.mem_ctrls.bw_read::cpu3.dtb.walker        21543                       # Total read bandwidth from this memory (bytes/s)
system.mem_ctrls.bw_read::cpu3.itb.walker        23127                       # Total read bandwidth from this memory (bytes/s)
system.mem_ctrls.bw_read::cpu3.inst          99487674                       # Total read bandwidth from this memory (bytes/s)
system.mem_ctrls.bw_read::cpu3.data          36890858                       # Total read bandwidth from this memory (bytes/s)
system.mem_ctrls.bw_read::cpu4.dtb.walker        17226                       # Total read bandwidth from this memory (bytes/s)
system.mem_ctrls.bw_read::cpu4.itb.walker        17741                       # Total read bandwidth from this memory (bytes/s)
system.mem_ctrls.bw_read::cpu4.inst         149116679                       # Total read bandwidth from this memory (bytes/s)
system.mem_ctrls.bw_read::cpu4.data          53291614                       # Total read bandwidth from this memory (bytes/s)
system.mem_ctrls.bw_read::cpu5.dtb.walker         9524                       # Total read bandwidth from this memory (bytes/s)
system.mem_ctrls.bw_read::cpu5.itb.walker         5762                       # Total read bandwidth from this memory (bytes/s)
system.mem_ctrls.bw_read::cpu5.inst         198184654                       # Total read bandwidth from this memory (bytes/s)
system.mem_ctrls.bw_read::cpu5.data          67291713                       # Total read bandwidth from this memory (bytes/s)
system.mem_ctrls.bw_read::cpu6.dtb.walker        10890                       # Total read bandwidth from this memory (bytes/s)
system.mem_ctrls.bw_read::cpu6.itb.walker        12910                       # Total read bandwidth from this memory (bytes/s)
system.mem_ctrls.bw_read::cpu6.inst         248035483                       # Total read bandwidth from this memory (bytes/s)
system.mem_ctrls.bw_read::cpu6.data          85266199                       # Total read bandwidth from this memory (bytes/s)
system.mem_ctrls.bw_read::cpu7.dtb.walker        16672                       # Total read bandwidth from this memory (bytes/s)
system.mem_ctrls.bw_read::cpu7.itb.walker        17147                       # Total read bandwidth from this memory (bytes/s)
system.mem_ctrls.bw_read::cpu7.inst         297460775                       # Total read bandwidth from this memory (bytes/s)
system.mem_ctrls.bw_read::cpu7.data         102003446                       # Total read bandwidth from this memory (bytes/s)
system.mem_ctrls.bw_read::total            1425853892                       # Total read bandwidth from this memory (bytes/s)
system.mem_ctrls.bw_inst_read::cpu0.inst      1374754                       # Instruction read bandwidth from this memory (bytes/s)
system.mem_ctrls.bw_inst_read::cpu1.inst       477338                       # Instruction read bandwidth from this memory (bytes/s)
system.mem_ctrls.bw_inst_read::cpu2.inst     50146040                       # Instruction read bandwidth from this memory (bytes/s)
system.mem_ctrls.bw_inst_read::cpu3.inst     99487674                       # Instruction read bandwidth from this memory (bytes/s)
system.mem_ctrls.bw_inst_read::cpu4.inst    149116679                       # Instruction read bandwidth from this memory (bytes/s)
system.mem_ctrls.bw_inst_read::cpu5.inst    198184654                       # Instruction read bandwidth from this memory (bytes/s)
system.mem_ctrls.bw_inst_read::cpu6.inst    248035483                       # Instruction read bandwidth from this memory (bytes/s)
system.mem_ctrls.bw_inst_read::cpu7.inst    297460775                       # Instruction read bandwidth from this memory (bytes/s)
system.mem_ctrls.bw_inst_read::total       1044283398                       # Instruction read bandwidth from this memory (bytes/s)
system.mem_ctrls.bw_write::writebacks        26939330                       # Write bandwidth from this memory (bytes/s)
system.mem_ctrls.bw_write::realview.ide       3376366                       # Write bandwidth from this memory (bytes/s)
system.mem_ctrls.bw_write::cpu0.data             5589                       # Write bandwidth from this memory (bytes/s)
system.mem_ctrls.bw_write::cpu1.data               17                       # Write bandwidth from this memory (bytes/s)
system.mem_ctrls.bw_write::cpu2.data               17                       # Write bandwidth from this memory (bytes/s)
system.mem_ctrls.bw_write::cpu3.data               17                       # Write bandwidth from this memory (bytes/s)
system.mem_ctrls.bw_write::cpu4.data               17                       # Write bandwidth from this memory (bytes/s)
system.mem_ctrls.bw_write::cpu5.data               17                       # Write bandwidth from this memory (bytes/s)
system.mem_ctrls.bw_write::cpu6.data               17                       # Write bandwidth from this memory (bytes/s)
system.mem_ctrls.bw_write::cpu7.data               12                       # Write bandwidth from this memory (bytes/s)
system.mem_ctrls.bw_write::total             30321397                       # Write bandwidth from this memory (bytes/s)
system.mem_ctrls.bw_total::writebacks        26939330                       # Total bandwidth to/from this memory (bytes/s)
system.mem_ctrls.bw_total::realview.ide       3473784                       # Total bandwidth to/from this memory (bytes/s)
system.mem_ctrls.bw_total::cpu0.dtb.walker        21761                       # Total bandwidth to/from this memory (bytes/s)
system.mem_ctrls.bw_total::cpu0.itb.walker        20137                       # Total bandwidth to/from this memory (bytes/s)
system.mem_ctrls.bw_total::cpu0.inst          1374754                       # Total bandwidth to/from this memory (bytes/s)
system.mem_ctrls.bw_total::cpu0.data         11779304                       # Total bandwidth to/from this memory (bytes/s)
system.mem_ctrls.bw_total::cpu1.dtb.walker        17167                       # Total bandwidth to/from this memory (bytes/s)
system.mem_ctrls.bw_total::cpu1.itb.walker        17682                       # Total bandwidth to/from this memory (bytes/s)
system.mem_ctrls.bw_total::cpu1.inst           477338                       # Total bandwidth to/from this memory (bytes/s)
system.mem_ctrls.bw_total::cpu1.data          4250312                       # Total bandwidth to/from this memory (bytes/s)
system.mem_ctrls.bw_total::cpu2.dtb.walker        19028                       # Total bandwidth to/from this memory (bytes/s)
system.mem_ctrls.bw_total::cpu2.itb.walker        20256                       # Total bandwidth to/from this memory (bytes/s)
system.mem_ctrls.bw_total::cpu2.inst         50146040                       # Total bandwidth to/from this memory (bytes/s)
system.mem_ctrls.bw_total::cpu2.data         20436681                       # Total bandwidth to/from this memory (bytes/s)
system.mem_ctrls.bw_total::cpu3.dtb.walker        21543                       # Total bandwidth to/from this memory (bytes/s)
system.mem_ctrls.bw_total::cpu3.itb.walker        23127                       # Total bandwidth to/from this memory (bytes/s)
system.mem_ctrls.bw_total::cpu3.inst         99487674                       # Total bandwidth to/from this memory (bytes/s)
system.mem_ctrls.bw_total::cpu3.data         36890875                       # Total bandwidth to/from this memory (bytes/s)
system.mem_ctrls.bw_total::cpu4.dtb.walker        17226                       # Total bandwidth to/from this memory (bytes/s)
system.mem_ctrls.bw_total::cpu4.itb.walker        17741                       # Total bandwidth to/from this memory (bytes/s)
system.mem_ctrls.bw_total::cpu4.inst        149116679                       # Total bandwidth to/from this memory (bytes/s)
system.mem_ctrls.bw_total::cpu4.data         53291630                       # Total bandwidth to/from this memory (bytes/s)
system.mem_ctrls.bw_total::cpu5.dtb.walker         9524                       # Total bandwidth to/from this memory (bytes/s)
system.mem_ctrls.bw_total::cpu5.itb.walker         5762                       # Total bandwidth to/from this memory (bytes/s)
system.mem_ctrls.bw_total::cpu5.inst        198184654                       # Total bandwidth to/from this memory (bytes/s)
system.mem_ctrls.bw_total::cpu5.data         67291730                       # Total bandwidth to/from this memory (bytes/s)
system.mem_ctrls.bw_total::cpu6.dtb.walker        10890                       # Total bandwidth to/from this memory (bytes/s)
system.mem_ctrls.bw_total::cpu6.itb.walker        12910                       # Total bandwidth to/from this memory (bytes/s)
system.mem_ctrls.bw_total::cpu6.inst        248035483                       # Total bandwidth to/from this memory (bytes/s)
system.mem_ctrls.bw_total::cpu6.data         85266215                       # Total bandwidth to/from this memory (bytes/s)
system.mem_ctrls.bw_total::cpu7.dtb.walker        16672                       # Total bandwidth to/from this memory (bytes/s)
system.mem_ctrls.bw_total::cpu7.itb.walker        17147                       # Total bandwidth to/from this memory (bytes/s)
system.mem_ctrls.bw_total::cpu7.inst        297460775                       # Total bandwidth to/from this memory (bytes/s)
system.mem_ctrls.bw_total::cpu7.data        102003459                       # Total bandwidth to/from this memory (bytes/s)
system.mem_ctrls.bw_total::total           1456175289                       # Total bandwidth to/from this memory (bytes/s)
system.mem_ctrls.readReqs                           0                       # Number of read requests accepted
system.mem_ctrls.writeReqs                          0                       # Number of write requests accepted
system.mem_ctrls.readBursts                         0                       # Number of DRAM read bursts, including those serviced by the write queue
system.mem_ctrls.writeBursts                        0                       # Number of DRAM write bursts, including those merged in the write queue
system.mem_ctrls.bytesReadDRAM                      0                       # Total number of bytes read from DRAM
system.mem_ctrls.bytesReadWrQ                       0                       # Total number of bytes read from write queue
system.mem_ctrls.bytesWritten                       0                       # Total number of bytes written to DRAM
system.mem_ctrls.bytesReadSys                       0                       # Total read bytes from the system interface side
system.mem_ctrls.bytesWrittenSys                    0                       # Total written bytes from the system interface side
system.mem_ctrls.servicedByWrQ                      0                       # Number of DRAM read bursts serviced by the write queue
system.mem_ctrls.mergedWrBursts                     0                       # Number of DRAM write bursts merged with an existing one
system.mem_ctrls.neitherReadNorWriteReqs            0                       # Number of requests that are neither read nor write
system.mem_ctrls.perBankRdBursts::0                 0                       # Per bank write bursts
system.mem_ctrls.perBankRdBursts::1                 0                       # Per bank write bursts
system.mem_ctrls.perBankRdBursts::2                 0                       # Per bank write bursts
system.mem_ctrls.perBankRdBursts::3                 0                       # Per bank write bursts
system.mem_ctrls.perBankRdBursts::4                 0                       # Per bank write bursts
system.mem_ctrls.perBankRdBursts::5                 0                       # Per bank write bursts
system.mem_ctrls.perBankRdBursts::6                 0                       # Per bank write bursts
system.mem_ctrls.perBankRdBursts::7                 0                       # Per bank write bursts
system.mem_ctrls.perBankRdBursts::8                 0                       # Per bank write bursts
system.mem_ctrls.perBankRdBursts::9                 0                       # Per bank write bursts
system.mem_ctrls.perBankRdBursts::10                0                       # Per bank write bursts
system.mem_ctrls.perBankRdBursts::11                0                       # Per bank write bursts
system.mem_ctrls.perBankRdBursts::12                0                       # Per bank write bursts
system.mem_ctrls.perBankRdBursts::13                0                       # Per bank write bursts
system.mem_ctrls.perBankRdBursts::14                0                       # Per bank write bursts
system.mem_ctrls.perBankRdBursts::15                0                       # Per bank write bursts
system.mem_ctrls.perBankWrBursts::0                 0                       # Per bank write bursts
system.mem_ctrls.perBankWrBursts::1                 0                       # Per bank write bursts
system.mem_ctrls.perBankWrBursts::2                 0                       # Per bank write bursts
system.mem_ctrls.perBankWrBursts::3                 0                       # Per bank write bursts
system.mem_ctrls.perBankWrBursts::4                 0                       # Per bank write bursts
system.mem_ctrls.perBankWrBursts::5                 0                       # Per bank write bursts
system.mem_ctrls.perBankWrBursts::6                 0                       # Per bank write bursts
system.mem_ctrls.perBankWrBursts::7                 0                       # Per bank write bursts
system.mem_ctrls.perBankWrBursts::8                 0                       # Per bank write bursts
system.mem_ctrls.perBankWrBursts::9                 0                       # Per bank write bursts
system.mem_ctrls.perBankWrBursts::10                0                       # Per bank write bursts
system.mem_ctrls.perBankWrBursts::11                0                       # Per bank write bursts
system.mem_ctrls.perBankWrBursts::12                0                       # Per bank write bursts
system.mem_ctrls.perBankWrBursts::13                0                       # Per bank write bursts
system.mem_ctrls.perBankWrBursts::14                0                       # Per bank write bursts
system.mem_ctrls.perBankWrBursts::15                0                       # Per bank write bursts
system.mem_ctrls.numRdRetry                         0                       # Number of times read queue was full causing retry
system.mem_ctrls.numWrRetry                         0                       # Number of times write queue was full causing retry
system.mem_ctrls.totGap                             0                       # Total gap between requests
system.mem_ctrls.readPktSize::0                     0                       # Read request sizes (log2)
system.mem_ctrls.readPktSize::1                     0                       # Read request sizes (log2)
system.mem_ctrls.readPktSize::2                     0                       # Read request sizes (log2)
system.mem_ctrls.readPktSize::3                     0                       # Read request sizes (log2)
system.mem_ctrls.readPktSize::4                     0                       # Read request sizes (log2)
system.mem_ctrls.readPktSize::5                     0                       # Read request sizes (log2)
system.mem_ctrls.readPktSize::6                     0                       # Read request sizes (log2)
system.mem_ctrls.writePktSize::0                    0                       # Write request sizes (log2)
system.mem_ctrls.writePktSize::1                    0                       # Write request sizes (log2)
system.mem_ctrls.writePktSize::2                    0                       # Write request sizes (log2)
system.mem_ctrls.writePktSize::3                    0                       # Write request sizes (log2)
system.mem_ctrls.writePktSize::4                    0                       # Write request sizes (log2)
system.mem_ctrls.writePktSize::5                    0                       # Write request sizes (log2)
system.mem_ctrls.writePktSize::6                    0                       # Write request sizes (log2)
system.mem_ctrls.rdQLenPdf::0                       0                       # What read queue length does an incoming req see
system.mem_ctrls.rdQLenPdf::1                       0                       # What read queue length does an incoming req see
system.mem_ctrls.rdQLenPdf::2                       0                       # What read queue length does an incoming req see
system.mem_ctrls.rdQLenPdf::3                       0                       # What read queue length does an incoming req see
system.mem_ctrls.rdQLenPdf::4                       0                       # What read queue length does an incoming req see
system.mem_ctrls.rdQLenPdf::5                       0                       # What read queue length does an incoming req see
system.mem_ctrls.rdQLenPdf::6                       0                       # What read queue length does an incoming req see
system.mem_ctrls.rdQLenPdf::7                       0                       # What read queue length does an incoming req see
system.mem_ctrls.rdQLenPdf::8                       0                       # What read queue length does an incoming req see
system.mem_ctrls.rdQLenPdf::9                       0                       # What read queue length does an incoming req see
system.mem_ctrls.rdQLenPdf::10                      0                       # What read queue length does an incoming req see
system.mem_ctrls.rdQLenPdf::11                      0                       # What read queue length does an incoming req see
system.mem_ctrls.rdQLenPdf::12                      0                       # What read queue length does an incoming req see
system.mem_ctrls.rdQLenPdf::13                      0                       # What read queue length does an incoming req see
system.mem_ctrls.rdQLenPdf::14                      0                       # What read queue length does an incoming req see
system.mem_ctrls.rdQLenPdf::15                      0                       # What read queue length does an incoming req see
system.mem_ctrls.rdQLenPdf::16                      0                       # What read queue length does an incoming req see
system.mem_ctrls.rdQLenPdf::17                      0                       # What read queue length does an incoming req see
system.mem_ctrls.rdQLenPdf::18                      0                       # What read queue length does an incoming req see
system.mem_ctrls.rdQLenPdf::19                      0                       # What read queue length does an incoming req see
system.mem_ctrls.rdQLenPdf::20                      0                       # What read queue length does an incoming req see
system.mem_ctrls.rdQLenPdf::21                      0                       # What read queue length does an incoming req see
system.mem_ctrls.rdQLenPdf::22                      0                       # What read queue length does an incoming req see
system.mem_ctrls.rdQLenPdf::23                      0                       # What read queue length does an incoming req see
system.mem_ctrls.rdQLenPdf::24                      0                       # What read queue length does an incoming req see
system.mem_ctrls.rdQLenPdf::25                      0                       # What read queue length does an incoming req see
system.mem_ctrls.rdQLenPdf::26                      0                       # What read queue length does an incoming req see
system.mem_ctrls.rdQLenPdf::27                      0                       # What read queue length does an incoming req see
system.mem_ctrls.rdQLenPdf::28                      0                       # What read queue length does an incoming req see
system.mem_ctrls.rdQLenPdf::29                      0                       # What read queue length does an incoming req see
system.mem_ctrls.rdQLenPdf::30                      0                       # What read queue length does an incoming req see
system.mem_ctrls.rdQLenPdf::31                      0                       # What read queue length does an incoming req see
system.mem_ctrls.wrQLenPdf::0                       0                       # What write queue length does an incoming req see
system.mem_ctrls.wrQLenPdf::1                       0                       # What write queue length does an incoming req see
system.mem_ctrls.wrQLenPdf::2                       0                       # What write queue length does an incoming req see
system.mem_ctrls.wrQLenPdf::3                       0                       # What write queue length does an incoming req see
system.mem_ctrls.wrQLenPdf::4                       0                       # What write queue length does an incoming req see
system.mem_ctrls.wrQLenPdf::5                       0                       # What write queue length does an incoming req see
system.mem_ctrls.wrQLenPdf::6                       0                       # What write queue length does an incoming req see
system.mem_ctrls.wrQLenPdf::7                       0                       # What write queue length does an incoming req see
system.mem_ctrls.wrQLenPdf::8                       0                       # What write queue length does an incoming req see
system.mem_ctrls.wrQLenPdf::9                       0                       # What write queue length does an incoming req see
system.mem_ctrls.wrQLenPdf::10                      0                       # What write queue length does an incoming req see
system.mem_ctrls.wrQLenPdf::11                      0                       # What write queue length does an incoming req see
system.mem_ctrls.wrQLenPdf::12                      0                       # What write queue length does an incoming req see
system.mem_ctrls.wrQLenPdf::13                      0                       # What write queue length does an incoming req see
system.mem_ctrls.wrQLenPdf::14                      0                       # What write queue length does an incoming req see
system.mem_ctrls.wrQLenPdf::15                      0                       # What write queue length does an incoming req see
system.mem_ctrls.wrQLenPdf::16                      0                       # What write queue length does an incoming req see
system.mem_ctrls.wrQLenPdf::17                      0                       # What write queue length does an incoming req see
system.mem_ctrls.wrQLenPdf::18                      0                       # What write queue length does an incoming req see
system.mem_ctrls.wrQLenPdf::19                      0                       # What write queue length does an incoming req see
system.mem_ctrls.wrQLenPdf::20                      0                       # What write queue length does an incoming req see
system.mem_ctrls.wrQLenPdf::21                      0                       # What write queue length does an incoming req see
system.mem_ctrls.wrQLenPdf::22                      0                       # What write queue length does an incoming req see
system.mem_ctrls.wrQLenPdf::23                      0                       # What write queue length does an incoming req see
system.mem_ctrls.wrQLenPdf::24                      0                       # What write queue length does an incoming req see
system.mem_ctrls.wrQLenPdf::25                      0                       # What write queue length does an incoming req see
system.mem_ctrls.wrQLenPdf::26                      0                       # What write queue length does an incoming req see
system.mem_ctrls.wrQLenPdf::27                      0                       # What write queue length does an incoming req see
system.mem_ctrls.wrQLenPdf::28                      0                       # What write queue length does an incoming req see
system.mem_ctrls.wrQLenPdf::29                      0                       # What write queue length does an incoming req see
system.mem_ctrls.wrQLenPdf::30                      0                       # What write queue length does an incoming req see
system.mem_ctrls.wrQLenPdf::31                      0                       # What write queue length does an incoming req see
system.mem_ctrls.wrQLenPdf::32                      0                       # What write queue length does an incoming req see
system.mem_ctrls.wrQLenPdf::33                      0                       # What write queue length does an incoming req see
system.mem_ctrls.wrQLenPdf::34                      0                       # What write queue length does an incoming req see
system.mem_ctrls.wrQLenPdf::35                      0                       # What write queue length does an incoming req see
system.mem_ctrls.wrQLenPdf::36                      0                       # What write queue length does an incoming req see
system.mem_ctrls.wrQLenPdf::37                      0                       # What write queue length does an incoming req see
system.mem_ctrls.wrQLenPdf::38                      0                       # What write queue length does an incoming req see
system.mem_ctrls.wrQLenPdf::39                      0                       # What write queue length does an incoming req see
system.mem_ctrls.wrQLenPdf::40                      0                       # What write queue length does an incoming req see
system.mem_ctrls.wrQLenPdf::41                      0                       # What write queue length does an incoming req see
system.mem_ctrls.wrQLenPdf::42                      0                       # What write queue length does an incoming req see
system.mem_ctrls.wrQLenPdf::43                      0                       # What write queue length does an incoming req see
system.mem_ctrls.wrQLenPdf::44                      0                       # What write queue length does an incoming req see
system.mem_ctrls.wrQLenPdf::45                      0                       # What write queue length does an incoming req see
system.mem_ctrls.wrQLenPdf::46                      0                       # What write queue length does an incoming req see
system.mem_ctrls.wrQLenPdf::47                      0                       # What write queue length does an incoming req see
system.mem_ctrls.wrQLenPdf::48                      0                       # What write queue length does an incoming req see
system.mem_ctrls.wrQLenPdf::49                      0                       # What write queue length does an incoming req see
system.mem_ctrls.wrQLenPdf::50                      0                       # What write queue length does an incoming req see
system.mem_ctrls.wrQLenPdf::51                      0                       # What write queue length does an incoming req see
system.mem_ctrls.wrQLenPdf::52                      0                       # What write queue length does an incoming req see
system.mem_ctrls.wrQLenPdf::53                      0                       # What write queue length does an incoming req see
system.mem_ctrls.wrQLenPdf::54                      0                       # What write queue length does an incoming req see
system.mem_ctrls.wrQLenPdf::55                      0                       # What write queue length does an incoming req see
system.mem_ctrls.wrQLenPdf::56                      0                       # What write queue length does an incoming req see
system.mem_ctrls.wrQLenPdf::57                      0                       # What write queue length does an incoming req see
system.mem_ctrls.wrQLenPdf::58                      0                       # What write queue length does an incoming req see
system.mem_ctrls.wrQLenPdf::59                      0                       # What write queue length does an incoming req see
system.mem_ctrls.wrQLenPdf::60                      0                       # What write queue length does an incoming req see
system.mem_ctrls.wrQLenPdf::61                      0                       # What write queue length does an incoming req see
system.mem_ctrls.wrQLenPdf::62                      0                       # What write queue length does an incoming req see
system.mem_ctrls.wrQLenPdf::63                      0                       # What write queue length does an incoming req see
system.mem_ctrls.totQLat                            0                       # Total ticks spent queuing
system.mem_ctrls.totMemAccLat                       0                       # Total ticks spent from burst creation until serviced by the DRAM
system.mem_ctrls.totBusLat                          0                       # Total ticks spent in databus transfers
system.mem_ctrls.avgQLat                          nan                       # Average queueing delay per DRAM burst
system.mem_ctrls.avgBusLat                        nan                       # Average bus latency per DRAM burst
system.mem_ctrls.avgMemAccLat                     nan                       # Average memory access latency per DRAM burst
system.mem_ctrls.avgRdBW                         0.00                       # Average DRAM read bandwidth in MiByte/s
system.mem_ctrls.avgWrBW                         0.00                       # Average achieved write bandwidth in MiByte/s
system.mem_ctrls.avgRdBWSys                      0.00                       # Average system read bandwidth in MiByte/s
system.mem_ctrls.avgWrBWSys                      0.00                       # Average system write bandwidth in MiByte/s
system.mem_ctrls.peakBW                      12800.00                       # Theoretical peak bandwidth in MiByte/s
system.mem_ctrls.busUtil                         0.00                       # Data bus utilization in percentage
system.mem_ctrls.busUtilRead                     0.00                       # Data bus utilization in percentage for reads
system.mem_ctrls.busUtilWrite                    0.00                       # Data bus utilization in percentage for writes
system.mem_ctrls.avgRdQLen                       0.00                       # Average read queue length when enqueuing
system.mem_ctrls.avgWrQLen                       0.00                       # Average write queue length when enqueuing
system.mem_ctrls.readRowHits                        0                       # Number of row buffer hits during reads
system.mem_ctrls.writeRowHits                       0                       # Number of row buffer hits during writes
system.mem_ctrls.readRowHitRate                   nan                       # Row buffer hit rate for reads
system.mem_ctrls.writeRowHitRate                  nan                       # Row buffer hit rate for writes
system.mem_ctrls.avgGap                           nan                       # Average gap between requests
system.mem_ctrls.pageHitRate                      nan                       # Row buffer hit rate, read and write combined
system.mem_ctrls.memoryStateTime::IDLE   3124319738750                       # Time in different power states
system.mem_ctrls.memoryStateTime::REF    107931980000                       # Time in different power states
system.mem_ctrls.memoryStateTime::PRE_PDN            0                       # Time in different power states
system.mem_ctrls.memoryStateTime::ACT               0                       # Time in different power states
system.mem_ctrls.memoryStateTime::ACT_PDN            0                       # Time in different power states
system.mem_ctrls.actEnergy::0                       0                       # Energy for activate commands per rank (pJ)
system.mem_ctrls.actEnergy::1                       0                       # Energy for activate commands per rank (pJ)
system.mem_ctrls.preEnergy::0                       0                       # Energy for precharge commands per rank (pJ)
system.mem_ctrls.preEnergy::1                       0                       # Energy for precharge commands per rank (pJ)
system.mem_ctrls.readEnergy::0                      0                       # Energy for read commands per rank (pJ)
system.mem_ctrls.readEnergy::1                      0                       # Energy for read commands per rank (pJ)
system.mem_ctrls.writeEnergy::0                     0                       # Energy for write commands per rank (pJ)
system.mem_ctrls.writeEnergy::1                     0                       # Energy for write commands per rank (pJ)
system.mem_ctrls.refreshEnergy::0        211114952880                       # Energy for refresh commands per rank (pJ)
system.mem_ctrls.refreshEnergy::1        211114952880                       # Energy for refresh commands per rank (pJ)
system.mem_ctrls.actBackEnergy::0         69921242505                       # Energy for active background per rank (pJ)
system.mem_ctrls.actBackEnergy::1         69921242505                       # Energy for active background per rank (pJ)
system.mem_ctrls.preBackEnergy::0        1878016599750                       # Energy for precharge background per rank (pJ)
system.mem_ctrls.preBackEnergy::1        1878016599750                       # Energy for precharge background per rank (pJ)
system.mem_ctrls.totalEnergy::0          2159052795135                       # Total energy per rank (pJ)
system.mem_ctrls.totalEnergy::1          2159052795135                       # Total energy per rank (pJ)
system.mem_ctrls.averagePower::0           667.971740                       # Core power per rank (mW)
system.mem_ctrls.averagePower::1           667.971740                       # Core power per rank (mW)
system.cpu_voltage_domain.voltage                   1                       # Voltage in Volts
system.cpu_clk_domain.clock                       500                       # Clock period in ticks
system.tol2bus.trans_dist::ReadReq         1140222649                       # Transaction distribution
system.tol2bus.trans_dist::ReadResp        1140222667                       # Transaction distribution
system.tol2bus.trans_dist::WriteReq             50677                       # Transaction distribution
system.tol2bus.trans_dist::WriteResp            50677                       # Transaction distribution
system.tol2bus.trans_dist::Writeback          3982012                       # Transaction distribution
system.tol2bus.trans_dist::SoftPFReq               18                       # Transaction distribution
system.tol2bus.trans_dist::SoftPFResp              18                       # Transaction distribution
system.tol2bus.trans_dist::UpgradeReq          305079                       # Transaction distribution
system.tol2bus.trans_dist::SCUpgradeReq        217892                       # Transaction distribution
system.tol2bus.trans_dist::UpgradeResp         522971                       # Transaction distribution
system.tol2bus.trans_dist::ReadExReq          2269940                       # Transaction distribution
system.tol2bus.trans_dist::ReadExResp         2269940                       # Transaction distribution
system.tol2bus.trans_dist::LoadLockedReq           18                       # Transaction distribution
system.tol2bus.trans_dist::StoreCondReq            18                       # Transaction distribution
system.tol2bus.trans_dist::StoreCondResp           18                       # Transaction distribution
system.tol2bus.pkt_count_system.cpu0.icache.mem_side::system.l2.cpu_side      7188792                       # Packet count per connected master and slave (bytes)
system.tol2bus.pkt_count_system.cpu0.dcache.mem_side::system.l2.cpu_side      5125620                       # Packet count per connected master and slave (bytes)
system.tol2bus.pkt_count_system.cpu0.itb.walker.dma::system.l2.cpu_side       148420                       # Packet count per connected master and slave (bytes)
system.tol2bus.pkt_count_system.cpu0.dtb.walker.dma::system.l2.cpu_side       380520                       # Packet count per connected master and slave (bytes)
system.tol2bus.pkt_count_system.cpu1.icache.mem_side::system.l2.cpu_side      4156806                       # Packet count per connected master and slave (bytes)
system.tol2bus.pkt_count_system.cpu1.dcache.mem_side::system.l2.cpu_side      2743647                       # Packet count per connected master and slave (bytes)
system.tol2bus.pkt_count_system.cpu1.itb.walker.dma::system.l2.cpu_side       114374                       # Packet count per connected master and slave (bytes)
system.tol2bus.pkt_count_system.cpu1.dtb.walker.dma::system.l2.cpu_side       298252                       # Packet count per connected master and slave (bytes)
system.tol2bus.pkt_count_system.cpu2.icache.mem_side::system.l2.cpu_side     83972530                       # Packet count per connected master and slave (bytes)
system.tol2bus.pkt_count_system.cpu2.dcache.mem_side::system.l2.cpu_side     29582423                       # Packet count per connected master and slave (bytes)
system.tol2bus.pkt_count_system.cpu2.itb.walker.dma::system.l2.cpu_side       165482                       # Packet count per connected master and slave (bytes)
system.tol2bus.pkt_count_system.cpu2.dtb.walker.dma::system.l2.cpu_side       384830                       # Packet count per connected master and slave (bytes)
system.tol2bus.pkt_count_system.cpu3.icache.mem_side::system.l2.cpu_side    162545530                       # Packet count per connected master and slave (bytes)
system.tol2bus.pkt_count_system.cpu3.dcache.mem_side::system.l2.cpu_side     55472008                       # Packet count per connected master and slave (bytes)
system.tol2bus.pkt_count_system.cpu3.itb.walker.dma::system.l2.cpu_side       100462                       # Packet count per connected master and slave (bytes)
system.tol2bus.pkt_count_system.cpu3.dtb.walker.dma::system.l2.cpu_side       202654                       # Packet count per connected master and slave (bytes)
system.tol2bus.pkt_count_system.cpu4.icache.mem_side::system.l2.cpu_side    242819214                       # Packet count per connected master and slave (bytes)
system.tol2bus.pkt_count_system.cpu4.dcache.mem_side::system.l2.cpu_side     82211882                       # Packet count per connected master and slave (bytes)
system.tol2bus.pkt_count_system.cpu4.itb.walker.dma::system.l2.cpu_side       103576                       # Packet count per connected master and slave (bytes)
system.tol2bus.pkt_count_system.cpu4.dtb.walker.dma::system.l2.cpu_side       239480                       # Packet count per connected master and slave (bytes)
system.tol2bus.pkt_count_system.cpu5.icache.mem_side::system.l2.cpu_side    320901064                       # Packet count per connected master and slave (bytes)
system.tol2bus.pkt_count_system.cpu5.dcache.mem_side::system.l2.cpu_side    107451098                       # Packet count per connected master and slave (bytes)
system.tol2bus.pkt_count_system.cpu5.itb.walker.dma::system.l2.cpu_side        44856                       # Packet count per connected master and slave (bytes)
system.tol2bus.pkt_count_system.cpu5.dtb.walker.dma::system.l2.cpu_side       102720                       # Packet count per connected master and slave (bytes)
system.tol2bus.pkt_count_system.cpu6.icache.mem_side::system.l2.cpu_side    402771356                       # Packet count per connected master and slave (bytes)
system.tol2bus.pkt_count_system.cpu6.dcache.mem_side::system.l2.cpu_side    135326117                       # Packet count per connected master and slave (bytes)
system.tol2bus.pkt_count_system.cpu6.itb.walker.dma::system.l2.cpu_side       169798                       # Packet count per connected master and slave (bytes)
system.tol2bus.pkt_count_system.cpu6.dtb.walker.dma::system.l2.cpu_side       351530                       # Packet count per connected master and slave (bytes)
system.tol2bus.pkt_count_system.cpu7.icache.mem_side::system.l2.cpu_side    482703852                       # Packet count per connected master and slave (bytes)
system.tol2bus.pkt_count_system.cpu7.dcache.mem_side::system.l2.cpu_side    162015621                       # Packet count per connected master and slave (bytes)
system.tol2bus.pkt_count_system.cpu7.itb.walker.dma::system.l2.cpu_side       101592                       # Packet count per connected master and slave (bytes)
system.tol2bus.pkt_count_system.cpu7.dtb.walker.dma::system.l2.cpu_side       218488                       # Packet count per connected master and slave (bytes)
system.tol2bus.pkt_count::total            2290114594                       # Packet count per connected master and slave (bytes)
system.tol2bus.pkt_size_system.cpu0.icache.mem_side::system.l2.cpu_side    229500024                       # Cumulative packet size per connected master and slave (bytes)
system.tol2bus.pkt_size_system.cpu0.dcache.mem_side::system.l2.cpu_side    186779145                       # Cumulative packet size per connected master and slave (bytes)
system.tol2bus.pkt_size_system.cpu0.itb.walker.dma::system.l2.cpu_side       296840                       # Cumulative packet size per connected master and slave (bytes)
system.tol2bus.pkt_size_system.cpu0.dtb.walker.dma::system.l2.cpu_side       761040                       # Cumulative packet size per connected master and slave (bytes)
system.tol2bus.pkt_size_system.cpu1.icache.mem_side::system.l2.cpu_side    133006992                       # Cumulative packet size per connected master and slave (bytes)
system.tol2bus.pkt_size_system.cpu1.dcache.mem_side::system.l2.cpu_side     98263643                       # Cumulative packet size per connected master and slave (bytes)
system.tol2bus.pkt_size_system.cpu1.itb.walker.dma::system.l2.cpu_side       228748                       # Cumulative packet size per connected master and slave (bytes)
system.tol2bus.pkt_size_system.cpu1.dtb.walker.dma::system.l2.cpu_side       596504                       # Cumulative packet size per connected master and slave (bytes)
system.tol2bus.pkt_size_system.cpu2.icache.mem_side::system.l2.cpu_side    286749860                       # Cumulative packet size per connected master and slave (bytes)
system.tol2bus.pkt_size_system.cpu2.dcache.mem_side::system.l2.cpu_side    160156204                       # Cumulative packet size per connected master and slave (bytes)
system.tol2bus.pkt_size_system.cpu2.itb.walker.dma::system.l2.cpu_side       330964                       # Cumulative packet size per connected master and slave (bytes)
system.tol2bus.pkt_size_system.cpu2.dtb.walker.dma::system.l2.cpu_side       769660                       # Cumulative packet size per connected master and slave (bytes)
system.tol2bus.pkt_size_system.cpu3.icache.mem_side::system.l2.cpu_side    400333160                       # Cumulative packet size per connected master and slave (bytes)
system.tol2bus.pkt_size_system.cpu3.dcache.mem_side::system.l2.cpu_side    184038190                       # Cumulative packet size per connected master and slave (bytes)
system.tol2bus.pkt_size_system.cpu3.itb.walker.dma::system.l2.cpu_side       200924                       # Cumulative packet size per connected master and slave (bytes)
system.tol2bus.pkt_size_system.cpu3.dtb.walker.dma::system.l2.cpu_side       405308                       # Cumulative packet size per connected master and slave (bytes)
system.tol2bus.pkt_size_system.cpu4.icache.mem_side::system.l2.cpu_side    569011908                       # Cumulative packet size per connected master and slave (bytes)
system.tol2bus.pkt_size_system.cpu4.dcache.mem_side::system.l2.cpu_side    239834166                       # Cumulative packet size per connected master and slave (bytes)
system.tol2bus.pkt_size_system.cpu4.itb.walker.dma::system.l2.cpu_side       207152                       # Cumulative packet size per connected master and slave (bytes)
system.tol2bus.pkt_size_system.cpu4.dtb.walker.dma::system.l2.cpu_side       478960                       # Cumulative packet size per connected master and slave (bytes)
system.tol2bus.pkt_size_system.cpu5.icache.mem_side::system.l2.cpu_side    667343888                       # Cumulative packet size per connected master and slave (bytes)
system.tol2bus.pkt_size_system.cpu5.dcache.mem_side::system.l2.cpu_side    241254974                       # Cumulative packet size per connected master and slave (bytes)
system.tol2bus.pkt_size_system.cpu5.itb.walker.dma::system.l2.cpu_side        89712                       # Cumulative packet size per connected master and slave (bytes)
system.tol2bus.pkt_size_system.cpu5.dtb.walker.dma::system.l2.cpu_side       205440                       # Cumulative packet size per connected master and slave (bytes)
system.tol2bus.pkt_size_system.cpu6.icache.mem_side::system.l2.cpu_side    886824112                       # Cumulative packet size per connected master and slave (bytes)
system.tol2bus.pkt_size_system.cpu6.dcache.mem_side::system.l2.cpu_side    339767180                       # Cumulative packet size per connected master and slave (bytes)
system.tol2bus.pkt_size_system.cpu6.itb.walker.dma::system.l2.cpu_side       339596                       # Cumulative packet size per connected master and slave (bytes)
system.tol2bus.pkt_size_system.cpu6.dtb.walker.dma::system.l2.cpu_side       703060                       # Cumulative packet size per connected master and slave (bytes)
system.tol2bus.pkt_size_system.cpu7.icache.mem_side::system.l2.cpu_side   1044295224                       # Cumulative packet size per connected master and slave (bytes)
system.tol2bus.pkt_size_system.cpu7.dcache.mem_side::system.l2.cpu_side    392262694                       # Cumulative packet size per connected master and slave (bytes)
system.tol2bus.pkt_size_system.cpu7.itb.walker.dma::system.l2.cpu_side       203184                       # Cumulative packet size per connected master and slave (bytes)
system.tol2bus.pkt_size_system.cpu7.dtb.walker.dma::system.l2.cpu_side       436976                       # Cumulative packet size per connected master and slave (bytes)
system.tol2bus.pkt_size::total             6065675432                       # Cumulative packet size per connected master and slave (bytes)
system.tol2bus.snoops                          181638                       # Total snoops (count)
system.tol2bus.snoop_fanout::samples         26926794                       # Request fanout histogram
system.tol2bus.snoop_fanout::mean           47.006637                       # Request fanout histogram
system.tol2bus.snoop_fanout::stdev           0.081194                       # Request fanout histogram
system.tol2bus.snoop_fanout::underflows             0      0.00%      0.00% # Request fanout histogram
system.tol2bus.snoop_fanout::0                      0      0.00%      0.00% # Request fanout histogram
system.tol2bus.snoop_fanout::1                      0      0.00%      0.00% # Request fanout histogram
system.tol2bus.snoop_fanout::2                      0      0.00%      0.00% # Request fanout histogram
system.tol2bus.snoop_fanout::3                      0      0.00%      0.00% # Request fanout histogram
system.tol2bus.snoop_fanout::4                      0      0.00%      0.00% # Request fanout histogram
system.tol2bus.snoop_fanout::5                      0      0.00%      0.00% # Request fanout histogram
system.tol2bus.snoop_fanout::6                      0      0.00%      0.00% # Request fanout histogram
system.tol2bus.snoop_fanout::7                      0      0.00%      0.00% # Request fanout histogram
system.tol2bus.snoop_fanout::8                      0      0.00%      0.00% # Request fanout histogram
system.tol2bus.snoop_fanout::9                      0      0.00%      0.00% # Request fanout histogram
system.tol2bus.snoop_fanout::10                     0      0.00%      0.00% # Request fanout histogram
system.tol2bus.snoop_fanout::11                     0      0.00%      0.00% # Request fanout histogram
system.tol2bus.snoop_fanout::12                     0      0.00%      0.00% # Request fanout histogram
system.tol2bus.snoop_fanout::13                     0      0.00%      0.00% # Request fanout histogram
system.tol2bus.snoop_fanout::14                     0      0.00%      0.00% # Request fanout histogram
system.tol2bus.snoop_fanout::15                     0      0.00%      0.00% # Request fanout histogram
system.tol2bus.snoop_fanout::16                     0      0.00%      0.00% # Request fanout histogram
system.tol2bus.snoop_fanout::17                     0      0.00%      0.00% # Request fanout histogram
system.tol2bus.snoop_fanout::18                     0      0.00%      0.00% # Request fanout histogram
system.tol2bus.snoop_fanout::19                     0      0.00%      0.00% # Request fanout histogram
system.tol2bus.snoop_fanout::20                     0      0.00%      0.00% # Request fanout histogram
system.tol2bus.snoop_fanout::21                     0      0.00%      0.00% # Request fanout histogram
system.tol2bus.snoop_fanout::22                     0      0.00%      0.00% # Request fanout histogram
system.tol2bus.snoop_fanout::23                     0      0.00%      0.00% # Request fanout histogram
system.tol2bus.snoop_fanout::24                     0      0.00%      0.00% # Request fanout histogram
system.tol2bus.snoop_fanout::25                     0      0.00%      0.00% # Request fanout histogram
system.tol2bus.snoop_fanout::26                     0      0.00%      0.00% # Request fanout histogram
system.tol2bus.snoop_fanout::27                     0      0.00%      0.00% # Request fanout histogram
system.tol2bus.snoop_fanout::28                     0      0.00%      0.00% # Request fanout histogram
system.tol2bus.snoop_fanout::29                     0      0.00%      0.00% # Request fanout histogram
system.tol2bus.snoop_fanout::30                     0      0.00%      0.00% # Request fanout histogram
system.tol2bus.snoop_fanout::31                     0      0.00%      0.00% # Request fanout histogram
system.tol2bus.snoop_fanout::32                     0      0.00%      0.00% # Request fanout histogram
system.tol2bus.snoop_fanout::33                     0      0.00%      0.00% # Request fanout histogram
system.tol2bus.snoop_fanout::34                     0      0.00%      0.00% # Request fanout histogram
system.tol2bus.snoop_fanout::35                     0      0.00%      0.00% # Request fanout histogram
system.tol2bus.snoop_fanout::36                     0      0.00%      0.00% # Request fanout histogram
system.tol2bus.snoop_fanout::37                     0      0.00%      0.00% # Request fanout histogram
system.tol2bus.snoop_fanout::38                     0      0.00%      0.00% # Request fanout histogram
system.tol2bus.snoop_fanout::39                     0      0.00%      0.00% # Request fanout histogram
system.tol2bus.snoop_fanout::40                     0      0.00%      0.00% # Request fanout histogram
system.tol2bus.snoop_fanout::41                     0      0.00%      0.00% # Request fanout histogram
system.tol2bus.snoop_fanout::42                     0      0.00%      0.00% # Request fanout histogram
system.tol2bus.snoop_fanout::43                     0      0.00%      0.00% # Request fanout histogram
system.tol2bus.snoop_fanout::44                     0      0.00%      0.00% # Request fanout histogram
system.tol2bus.snoop_fanout::45                     0      0.00%      0.00% # Request fanout histogram
system.tol2bus.snoop_fanout::46                     0      0.00%      0.00% # Request fanout histogram
system.tol2bus.snoop_fanout::47              26748092     99.34%     99.34% # Request fanout histogram
system.tol2bus.snoop_fanout::48                178702      0.66%    100.00% # Request fanout histogram
system.tol2bus.snoop_fanout::overflows              0      0.00%    100.00% # Request fanout histogram
system.tol2bus.snoop_fanout::min_value             47                       # Request fanout histogram
system.tol2bus.snoop_fanout::max_value             48                       # Request fanout histogram
system.tol2bus.snoop_fanout::total           26926794                       # Request fanout histogram
system.membus.trans_dist::ReadReq          1121190803                       # Transaction distribution
system.membus.trans_dist::ReadResp         1121190821                       # Transaction distribution
system.membus.trans_dist::WriteReq              50677                       # Transaction distribution
system.membus.trans_dist::WriteResp             50677                       # Transaction distribution
system.membus.trans_dist::Writeback           1360544                       # Transaction distribution
system.membus.trans_dist::SoftPFReq                18                       # Transaction distribution
system.membus.trans_dist::SoftPFResp               18                       # Transaction distribution
system.membus.trans_dist::WriteInvalidateReq       170520                       # Transaction distribution
system.membus.trans_dist::WriteInvalidateResp       170520                       # Transaction distribution
system.membus.trans_dist::UpgradeReq           310662                       # Transaction distribution
system.membus.trans_dist::SCUpgradeReq         214618                       # Transaction distribution
system.membus.trans_dist::UpgradeResp          140654                       # Transaction distribution
system.membus.trans_dist::ReadExReq           1190203                       # Transaction distribution
system.membus.trans_dist::ReadExResp          1061167                       # Transaction distribution
system.membus.trans_dist::LoadLockedReq            18                       # Transaction distribution
system.membus.trans_dist::StoreCondReq             18                       # Transaction distribution
system.membus.trans_dist::StoreCondResp            18                       # Transaction distribution
system.membus.pkt_count_system.iocache.mem_side::system.mem_ctrls.port       357404                       # Packet count per connected master and slave (bytes)
system.membus.pkt_count_system.iocache.mem_side::total       357404                       # Packet count per connected master and slave (bytes)
system.membus.pkt_count_system.l2.mem_side::system.bridge.slave       157582                       # Packet count per connected master and slave (bytes)
system.membus.pkt_count_system.l2.mem_side::system.realview.nvmem.port          178                       # Packet count per connected master and slave (bytes)
system.membus.pkt_count_system.l2.mem_side::system.realview.gic.pio        46332                       # Packet count per connected master and slave (bytes)
system.membus.pkt_count_system.l2.mem_side::system.mem_ctrls.port   2246540460                       # Packet count per connected master and slave (bytes)
system.membus.pkt_count_system.l2.mem_side::total   2246744552                       # Packet count per connected master and slave (bytes)
system.membus.pkt_count::total             2247101956                       # Packet count per connected master and slave (bytes)
system.membus.pkt_size_system.iocache.mem_side::system.mem_ctrls.port     11436928                       # Cumulative packet size per connected master and slave (bytes)
system.membus.pkt_size_system.iocache.mem_side::total     11436928                       # Cumulative packet size per connected master and slave (bytes)
system.membus.pkt_size_system.l2.mem_side::system.bridge.slave       192706                       # Cumulative packet size per connected master and slave (bytes)
system.membus.pkt_size_system.l2.mem_side::system.realview.nvmem.port          356                       # Cumulative packet size per connected master and slave (bytes)
system.membus.pkt_size_system.l2.mem_side::system.realview.gic.pio        92664                       # Cumulative packet size per connected master and slave (bytes)
system.membus.pkt_size_system.l2.mem_side::system.mem_ctrls.port   4695503510                       # Cumulative packet size per connected master and slave (bytes)
system.membus.pkt_size_system.l2.mem_side::total   4695789236                       # Cumulative packet size per connected master and slave (bytes)
system.membus.pkt_size::total              4707226164                       # Cumulative packet size per connected master and slave (bytes)
system.membus.snoops                                0                       # Total snoops (count)
system.membus.snoop_fanout::samples           4187870                       # Request fanout histogram
system.membus.snoop_fanout::mean                    1                       # Request fanout histogram
system.membus.snoop_fanout::stdev                   0                       # Request fanout histogram
system.membus.snoop_fanout::underflows              0      0.00%      0.00% # Request fanout histogram
system.membus.snoop_fanout::0                       0      0.00%      0.00% # Request fanout histogram
system.membus.snoop_fanout::1                 4187870    100.00%    100.00% # Request fanout histogram
system.membus.snoop_fanout::2                       0      0.00%    100.00% # Request fanout histogram
system.membus.snoop_fanout::overflows               0      0.00%    100.00% # Request fanout histogram
system.membus.snoop_fanout::min_value               1                       # Request fanout histogram
[...]
system.cpu7.icache.tags.occ_blocks::cpu7.inst          512                       # Average occupied blocks per requestor
system.cpu7.icache.tags.occ_percent::cpu7.inst            1                       # Average percentage of cache occupancy
system.cpu7.icache.tags.occ_percent::total            1                       # Average percentage of cache occupancy
system.cpu7.icache.tags.occ_task_id_blocks::1024          512                       # Occupied blocks per task id
system.cpu7.icache.tags.age_task_id_blocks_1024::3          257                       # Occupied blocks per task id
system.cpu7.icache.tags.age_task_id_blocks_1024::4          255                       # Occupied blocks per task id
system.cpu7.icache.tags.occ_task_id_percent::1024            1                       # Percentage of cache occupancy per task id
system.cpu7.icache.tags.tag_accesses         53623178                       # Number of tag accesses
system.cpu7.icache.tags.data_accesses        53623178                       # Number of data accesses
system.cpu7.icache.ReadReq_hits::cpu7.inst     26809789                       # number of ReadReq hits
system.cpu7.icache.ReadReq_hits::total       26809789                       # number of ReadReq hits
system.cpu7.icache.demand_hits::cpu7.inst     26809789                       # number of demand (read+write) hits
system.cpu7.icache.demand_hits::total        26809789                       # number of demand (read+write) hits
system.cpu7.icache.overall_hits::cpu7.inst     26809789                       # number of overall hits
system.cpu7.icache.overall_hits::total       26809789                       # number of overall hits
system.cpu7.icache.ReadReq_misses::cpu7.inst         1200                       # number of ReadReq misses
system.cpu7.icache.ReadReq_misses::total         1200                       # number of ReadReq misses
system.cpu7.icache.demand_misses::cpu7.inst         1200                       # number of demand (read+write) misses
system.cpu7.icache.demand_misses::total          1200                       # number of demand (read+write) misses
system.cpu7.icache.overall_misses::cpu7.inst         1200                       # number of overall misses
system.cpu7.icache.overall_misses::total         1200                       # number of overall misses
system.cpu7.icache.ReadReq_accesses::cpu7.inst     26810989                       # number of ReadReq accesses(hits+misses)
system.cpu7.icache.ReadReq_accesses::total     26810989                       # number of ReadReq accesses(hits+misses)
system.cpu7.icache.demand_accesses::cpu7.inst     26810989                       # number of demand (read+write) accesses
system.cpu7.icache.demand_accesses::total     26810989                       # number of demand (read+write) accesses
system.cpu7.icache.overall_accesses::cpu7.inst     26810989                       # number of overall (read+write) accesses
system.cpu7.icache.overall_accesses::total     26810989                       # number of overall (read+write) accesses
system.cpu7.icache.ReadReq_miss_rate::cpu7.inst     0.000045                       # miss rate for ReadReq accesses
system.cpu7.icache.ReadReq_miss_rate::total     0.000045                       # miss rate for ReadReq accesses
system.cpu7.icache.demand_miss_rate::cpu7.inst     0.000045                       # miss rate for demand accesses
system.cpu7.icache.demand_miss_rate::total     0.000045                       # miss rate for demand accesses
system.cpu7.icache.overall_miss_rate::cpu7.inst     0.000045                       # miss rate for overall accesses
system.cpu7.icache.overall_miss_rate::total     0.000045                       # miss rate for overall accesses
system.cpu7.icache.blocked_cycles::no_mshrs            0                       # number of cycles access was blocked
system.cpu7.icache.blocked_cycles::no_targets            0                       # number of cycles access was blocked
system.cpu7.icache.blocked::no_mshrs                0                       # number of cycles access was blocked
system.cpu7.icache.blocked::no_targets              0                       # number of cycles access was blocked
system.cpu7.icache.avg_blocked_cycles::no_mshrs          nan                       # average number of cycles each access was blocked
system.cpu7.icache.avg_blocked_cycles::no_targets          nan                       # average number of cycles each access was blocked
system.cpu7.icache.fast_writes                      0                       # number of fast writes performed
system.cpu7.icache.cache_copies                     0                       # number of cache copies performed
system.cpu7.icache.no_allocate_misses               0                       # Number of misses that were no-allocate
system.cpu7.dcache.tags.replacements             9862                       # number of replacements
system.cpu7.dcache.tags.tagsinuse          910.913102                       # Cycle average of tags in use
system.cpu7.dcache.tags.total_refs            2922630                       # Total number of references to valid blocks.
system.cpu7.dcache.tags.sampled_refs            10886                       # Sample count of references to valid blocks.
system.cpu7.dcache.tags.avg_refs           268.476024                       # Average number of references to valid blocks.
system.cpu7.dcache.tags.warmup_cycle                0                       # Cycle when the warmup percentage was hit.
system.cpu7.dcache.tags.occ_blocks::cpu7.data   910.913102                       # Average occupied blocks per requestor
system.cpu7.dcache.tags.occ_percent::cpu7.data     0.889564                       # Average percentage of cache occupancy
system.cpu7.dcache.tags.occ_percent::total     0.889564                       # Average percentage of cache occupancy
system.cpu7.dcache.tags.occ_task_id_blocks::1024         1024                       # Occupied blocks per task id
system.cpu7.dcache.tags.age_task_id_blocks_1024::0            9                       # Occupied blocks per task id
system.cpu7.dcache.tags.age_task_id_blocks_1024::1           71                       # Occupied blocks per task id
system.cpu7.dcache.tags.age_task_id_blocks_1024::2          512                       # Occupied blocks per task id
system.cpu7.dcache.tags.age_task_id_blocks_1024::3          430                       # Occupied blocks per task id
system.cpu7.dcache.tags.age_task_id_blocks_1024::4            2                       # Occupied blocks per task id
system.cpu7.dcache.tags.occ_task_id_percent::1024            1                       # Percentage of cache occupancy per task id
system.cpu7.dcache.tags.tag_accesses          5623805                       # Number of tag accesses
system.cpu7.dcache.tags.data_accesses         5623805                       # Number of data accesses
system.cpu7.dcache.ReadReq_hits::cpu7.data      2420224                       # number of ReadReq hits
system.cpu7.dcache.ReadReq_hits::total        2420224                       # number of ReadReq hits
system.cpu7.dcache.WriteReq_hits::cpu7.data       374551                       # number of WriteReq hits
system.cpu7.dcache.WriteReq_hits::total        374551                       # number of WriteReq hits
system.cpu7.dcache.SoftPFReq_hits::cpu7.data           66                       # number of SoftPFReq hits
system.cpu7.dcache.SoftPFReq_hits::total           66                       # number of SoftPFReq hits
system.cpu7.dcache.LoadLockedReq_hits::cpu7.data          569                       # number of LoadLockedReq hits
system.cpu7.dcache.LoadLockedReq_hits::total          569                       # number of LoadLockedReq hits
system.cpu7.dcache.StoreCondReq_hits::cpu7.data          489                       # number of StoreCondReq hits
system.cpu7.dcache.StoreCondReq_hits::total          489                       # number of StoreCondReq hits
system.cpu7.dcache.demand_hits::cpu7.data      2794775                       # number of demand (read+write) hits
system.cpu7.dcache.demand_hits::total         2794775                       # number of demand (read+write) hits
system.cpu7.dcache.overall_hits::cpu7.data      2794841                       # number of overall hits
system.cpu7.dcache.overall_hits::total        2794841                       # number of overall hits
system.cpu7.dcache.ReadReq_misses::cpu7.data         9988                       # number of ReadReq misses
system.cpu7.dcache.ReadReq_misses::total         9988                       # number of ReadReq misses
system.cpu7.dcache.WriteReq_misses::cpu7.data          287                       # number of WriteReq misses
system.cpu7.dcache.WriteReq_misses::total          287                       # number of WriteReq misses
system.cpu7.dcache.SoftPFReq_misses::cpu7.data          224                       # number of SoftPFReq misses
system.cpu7.dcache.SoftPFReq_misses::total          224                       # number of SoftPFReq misses
system.cpu7.dcache.LoadLockedReq_misses::cpu7.data          108                       # number of LoadLockedReq misses
system.cpu7.dcache.LoadLockedReq_misses::total          108                       # number of LoadLockedReq misses
system.cpu7.dcache.StoreCondReq_misses::cpu7.data          174                       # number of StoreCondReq misses
system.cpu7.dcache.StoreCondReq_misses::total          174                       # number of StoreCondReq misses
system.cpu7.dcache.demand_misses::cpu7.data        10275                       # number of demand (read+write) misses
system.cpu7.dcache.demand_misses::total         10275                       # number of demand (read+write) misses
system.cpu7.dcache.overall_misses::cpu7.data        10499                       # number of overall misses
system.cpu7.dcache.overall_misses::total        10499                       # number of overall misses
system.cpu7.dcache.ReadReq_accesses::cpu7.data      2430212                       # number of ReadReq accesses(hits+misses)
system.cpu7.dcache.ReadReq_accesses::total      2430212                       # number of ReadReq accesses(hits+misses)
system.cpu7.dcache.WriteReq_accesses::cpu7.data       374838                       # number of WriteReq accesses(hits+misses)
system.cpu7.dcache.WriteReq_accesses::total       374838                       # number of WriteReq accesses(hits+misses)
system.cpu7.dcache.SoftPFReq_accesses::cpu7.data          290                       # number of SoftPFReq accesses(hits+misses)
system.cpu7.dcache.SoftPFReq_accesses::total          290                       # number of SoftPFReq accesses(hits+misses)
system.cpu7.dcache.LoadLockedReq_accesses::cpu7.data          677                       # number of LoadLockedReq accesses(hits+misses)
system.cpu7.dcache.LoadLockedReq_accesses::total          677                       # number of LoadLockedReq accesses(hits+misses)
system.cpu7.dcache.StoreCondReq_accesses::cpu7.data          663                       # number of StoreCondReq accesses(hits+misses)
system.cpu7.dcache.StoreCondReq_accesses::total          663                       # number of StoreCondReq accesses(hits+misses)
system.cpu7.dcache.demand_accesses::cpu7.data      2805050                       # number of demand (read+write) accesses
system.cpu7.dcache.demand_accesses::total      2805050                       # number of demand (read+write) accesses
system.cpu7.dcache.overall_accesses::cpu7.data      2805340                       # number of overall (read+write) accesses
system.cpu7.dcache.overall_accesses::total      2805340                       # number of overall (read+write) accesses
system.cpu7.dcache.ReadReq_miss_rate::cpu7.data     0.004110                       # miss rate for ReadReq accesses
system.cpu7.dcache.ReadReq_miss_rate::total     0.004110                       # miss rate for ReadReq accesses
system.cpu7.dcache.WriteReq_miss_rate::cpu7.data     0.000766                       # miss rate for WriteReq accesses
system.cpu7.dcache.WriteReq_miss_rate::total     0.000766                       # miss rate for WriteReq accesses
system.cpu7.dcache.SoftPFReq_miss_rate::cpu7.data     0.772414                       # miss rate for SoftPFReq accesses
system.cpu7.dcache.SoftPFReq_miss_rate::total     0.772414                       # miss rate for SoftPFReq accesses
system.cpu7.dcache.LoadLockedReq_miss_rate::cpu7.data     0.159527                       # miss rate for LoadLockedReq accesses
system.cpu7.dcache.LoadLockedReq_miss_rate::total     0.159527                       # miss rate for LoadLockedReq accesses
system.cpu7.dcache.StoreCondReq_miss_rate::cpu7.data     0.262443                       # miss rate for StoreCondReq accesses
system.cpu7.dcache.StoreCondReq_miss_rate::total     0.262443                       # miss rate for StoreCondReq accesses
system.cpu7.dcache.demand_miss_rate::cpu7.data     0.003663                       # miss rate for demand accesses
system.cpu7.dcache.demand_miss_rate::total     0.003663                       # miss rate for demand accesses
system.cpu7.dcache.overall_miss_rate::cpu7.data     0.003743                       # miss rate for overall accesses
system.cpu7.dcache.overall_miss_rate::total     0.003743                       # miss rate for overall accesses
system.cpu7.dcache.blocked_cycles::no_mshrs            0                       # number of cycles access was blocked
system.cpu7.dcache.blocked_cycles::no_targets            0                       # number of cycles access was blocked
system.cpu7.dcache.blocked::no_mshrs                0                       # number of cycles access was blocked
system.cpu7.dcache.blocked::no_targets              0                       # number of cycles access was blocked
system.cpu7.dcache.avg_blocked_cycles::no_mshrs          nan                       # average number of cycles each access was blocked
system.cpu7.dcache.avg_blocked_cycles::no_targets          nan                       # average number of cycles each access was blocked
system.cpu7.dcache.fast_writes                      0                       # number of fast writes performed
system.cpu7.dcache.cache_copies                     0                       # number of cache copies performed
system.cpu7.dcache.writebacks::writebacks         1648                       # number of writebacks
system.cpu7.dcache.writebacks::total             1648                       # number of writebacks
system.cpu7.dcache.no_allocate_misses               0                       # Number of misses that were no-allocate
system.iocache.tags.replacements                 1287                       # number of replacements
system.iocache.tags.tagsinuse                      16                       # Cycle average of tags in use
system.iocache.tags.total_refs                      0                       # Total number of references to valid blocks.
system.iocache.tags.sampled_refs                 1303                       # Sample count of references to valid blocks.
system.iocache.tags.avg_refs                        0                       # Average number of references to valid blocks.
system.iocache.tags.warmup_cycle                    0                       # Cycle when the warmup percentage was hit.
system.iocache.tags.occ_blocks::realview.ide           16                       # Average occupied blocks per requestor
system.iocache.tags.occ_percent::realview.ide            1                       # Average percentage of cache occupancy
system.iocache.tags.occ_percent::total              1                       # Average percentage of cache occupancy
system.iocache.tags.occ_task_id_blocks::1023           16                       # Occupied blocks per task id
system.iocache.tags.age_task_id_blocks_1023::4           16                       # Occupied blocks per task id
system.iocache.tags.occ_task_id_percent::1023            1                       # Percentage of cache occupancy per task id
system.iocache.tags.tag_accesses                11583                       # Number of tag accesses
system.iocache.tags.data_accesses               11583                       # Number of data accesses
system.iocache.WriteInvalidateReq_hits::realview.ide         1264                       # number of WriteInvalidateReq hits
system.iocache.WriteInvalidateReq_hits::total         1264                       # number of WriteInvalidateReq hits
system.iocache.ReadReq_misses::realview.ide           23                       # number of ReadReq misses
system.iocache.ReadReq_misses::total               23                       # number of ReadReq misses
system.iocache.demand_misses::realview.ide           23                       # number of demand (read+write) misses
system.iocache.demand_misses::total                23                       # number of demand (read+write) misses
system.iocache.overall_misses::realview.ide           23                       # number of overall misses
system.iocache.overall_misses::total               23                       # number of overall misses
system.iocache.ReadReq_accesses::realview.ide           23                       # number of ReadReq accesses(hits+misses)
system.iocache.ReadReq_accesses::total             23                       # number of ReadReq accesses(hits+misses)
system.iocache.WriteInvalidateReq_accesses::realview.ide         1264                       # number of WriteInvalidateReq accesses(hits+misses)
system.iocache.WriteInvalidateReq_accesses::total         1264                       # number of WriteInvalidateReq accesses(hits+misses)
system.iocache.demand_accesses::realview.ide           23                       # number of demand (read+write) accesses
system.iocache.demand_accesses::total              23                       # number of demand (read+write) accesses
system.iocache.overall_accesses::realview.ide           23                       # number of overall (read+write) accesses
system.iocache.overall_accesses::total             23                       # number of overall (read+write) accesses
system.iocache.ReadReq_miss_rate::realview.ide            1                       # miss rate for ReadReq accesses
system.iocache.ReadReq_miss_rate::total             1                       # miss rate for ReadReq accesses
system.iocache.demand_miss_rate::realview.ide            1                       # miss rate for demand accesses
system.iocache.demand_miss_rate::total              1                       # miss rate for demand accesses
system.iocache.overall_miss_rate::realview.ide            1                       # miss rate for overall accesses
system.iocache.overall_miss_rate::total             1                       # miss rate for overall accesses
system.iocache.blocked_cycles::no_mshrs             0                       # number of cycles access was blocked
system.iocache.blocked_cycles::no_targets            0                       # number of cycles access was blocked
system.iocache.blocked::no_mshrs                    0                       # number of cycles access was blocked
system.iocache.blocked::no_targets                  0                       # number of cycles access was blocked
system.iocache.avg_blocked_cycles::no_mshrs          nan                       # average number of cycles each access was blocked
system.iocache.avg_blocked_cycles::no_targets          nan                       # average number of cycles each access was blocked
system.iocache.fast_writes                       1264                       # number of fast writes performed
system.iocache.cache_copies                         0                       # number of cache copies performed
system.iocache.no_allocate_misses                   0                       # Number of misses that were no-allocate

---------- End Simulation Statistics   ----------
