
---------- Begin Simulation Statistics ----------
sim_seconds                                  0.380671                       # Number of seconds simulated
sim_ticks                                380671435500                       # Number of ticks simulated
final_tick                               3576342357000                       # Number of ticks from beginning of simulation (restored from checkpoints and never reset)
sim_freq                                 1000000000000                       # Frequency of simulated ticks
host_inst_rate                                 242464                       # Simulator instruction rate (inst/s)
host_op_rate                                   244046                       # Simulator op (including micro ops) rate (op/s)
host_tick_rate                               12217764                       # Simulator tick rate (ticks/s)
host_mem_usage                                 984172                       # Number of bytes of host memory used
host_seconds                                 31157.21                       # Real time elapsed on the host
sim_insts                                  7554494368                       # Number of instructions simulated
sim_ops                                    7603787819                       # Number of ops (including micro ops) simulated
system.voltage_domain.voltage                       1                       # Voltage in Volts
system.clk_domain.clock                          1000                       # Clock period in ticks
system.mem_ctrls.bytes_read::switch_cpus0.dtb.walker        73088                       # Number of bytes read from this memory
system.mem_ctrls.bytes_read::switch_cpus0.itb.walker        15488                       # Number of bytes read from this memory
system.mem_ctrls.bytes_read::switch_cpus0.inst       563264                       # Number of bytes read from this memory
system.mem_ctrls.bytes_read::switch_cpus0.data     19433920                       # Number of bytes read from this memory
system.mem_ctrls.bytes_read::switch_cpus1.dtb.walker        51008                       # Number of bytes read from this memory
system.mem_ctrls.bytes_read::switch_cpus1.itb.walker        10304                       # Number of bytes read from this memory
system.mem_ctrls.bytes_read::switch_cpus1.inst       607552                       # Number of bytes read from this memory
system.mem_ctrls.bytes_read::switch_cpus1.data     18969024                       # Number of bytes read from this memory
system.mem_ctrls.bytes_read::switch_cpus2.dtb.walker        54464                       # Number of bytes read from this memory
system.mem_ctrls.bytes_read::switch_cpus2.itb.walker         8064                       # Number of bytes read from this memory
system.mem_ctrls.bytes_read::switch_cpus2.inst       826432                       # Number of bytes read from this memory
system.mem_ctrls.bytes_read::switch_cpus2.data     20032896                       # Number of bytes read from this memory
system.mem_ctrls.bytes_read::switch_cpus3.dtb.walker        48640                       # Number of bytes read from this memory
system.mem_ctrls.bytes_read::switch_cpus3.itb.walker         7296                       # Number of bytes read from this memory
system.mem_ctrls.bytes_read::switch_cpus3.inst       584000                       # Number of bytes read from this memory
system.mem_ctrls.bytes_read::switch_cpus3.data     18572864                       # Number of bytes read from this memory
system.mem_ctrls.bytes_read::switch_cpus4.dtb.walker        48256                       # Number of bytes read from this memory
system.mem_ctrls.bytes_read::switch_cpus4.itb.walker         6592                       # Number of bytes read from this memory
system.mem_ctrls.bytes_read::switch_cpus4.inst       551488                       # Number of bytes read from this memory
system.mem_ctrls.bytes_read::switch_cpus4.data     18708928                       # Number of bytes read from this memory
system.mem_ctrls.bytes_read::switch_cpus5.dtb.walker        61952                       # Number of bytes read from this memory
system.mem_ctrls.bytes_read::switch_cpus5.itb.walker        16512                       # Number of bytes read from this memory
system.mem_ctrls.bytes_read::switch_cpus5.inst       561984                       # Number of bytes read from this memory
system.mem_ctrls.bytes_read::switch_cpus5.data     18643904                       # Number of bytes read from this memory
system.mem_ctrls.bytes_read::switch_cpus6.dtb.walker        85760                       # Number of bytes read from this memory
system.mem_ctrls.bytes_read::switch_cpus6.itb.walker        34624                       # Number of bytes read from this memory
system.mem_ctrls.bytes_read::switch_cpus6.inst       854784                       # Number of bytes read from this memory
system.mem_ctrls.bytes_read::switch_cpus6.data     19524864                       # Number of bytes read from this memory
system.mem_ctrls.bytes_read::switch_cpus7.dtb.walker        56512                       # Number of bytes read from this memory
system.mem_ctrls.bytes_read::switch_cpus7.itb.walker        12416                       # Number of bytes read from this memory
system.mem_ctrls.bytes_read::switch_cpus7.inst       650112                       # Number of bytes read from this memory
system.mem_ctrls.bytes_read::switch_cpus7.data     19122560                       # Number of bytes read from this memory
system.mem_ctrls.bytes_read::l2.prefetcher     41445888                       # Number of bytes read from this memory
system.mem_ctrls.bytes_read::cpu0.inst            256                       # Number of bytes read from this memory
system.mem_ctrls.bytes_read::cpu0.data            192                       # Number of bytes read from this memory
system.mem_ctrls.bytes_read::cpu6.inst             64                       # Number of bytes read from this memory
system.mem_ctrls.bytes_read::cpu6.data            128                       # Number of bytes read from this memory
system.mem_ctrls.bytes_read::cpu7.inst            192                       # Number of bytes read from this memory
system.mem_ctrls.bytes_read::cpu7.data            192                       # Number of bytes read from this memory
system.mem_ctrls.bytes_read::total          200246464                       # Number of bytes read from this memory
system.mem_ctrls.bytes_inst_read::switch_cpus0.inst       563264                       # Number of instructions bytes read from this memory
system.mem_ctrls.bytes_inst_read::switch_cpus1.inst       607552                       # Number of instructions bytes read from this memory
system.mem_ctrls.bytes_inst_read::switch_cpus2.inst       826432                       # Number of instructions bytes read from this memory
system.mem_ctrls.bytes_inst_read::switch_cpus3.inst       584000                       # Number of instructions bytes read from this memory
system.mem_ctrls.bytes_inst_read::switch_cpus4.inst       551488                       # Number of instructions bytes read from this memory
system.mem_ctrls.bytes_inst_read::switch_cpus5.inst       561984                       # Number of instructions bytes read from this memory
system.mem_ctrls.bytes_inst_read::switch_cpus6.inst       854784                       # Number of instructions bytes read from this memory
system.mem_ctrls.bytes_inst_read::switch_cpus7.inst       650112                       # Number of instructions bytes read from this memory
system.mem_ctrls.bytes_inst_read::cpu0.inst          256                       # Number of instructions bytes read from this memory
system.mem_ctrls.bytes_inst_read::cpu6.inst           64                       # Number of instructions bytes read from this memory
system.mem_ctrls.bytes_inst_read::cpu7.inst          192                       # Number of instructions bytes read from this memory
system.mem_ctrls.bytes_inst_read::total       5200128                       # Number of instructions bytes read from this memory
system.mem_ctrls.bytes_written::writebacks     20452096                       # Number of bytes written to this memory
system.mem_ctrls.bytes_written::realview.ide        36864                       # Number of bytes written to this memory
system.mem_ctrls.bytes_written::total        20488960                       # Number of bytes written to this memory
system.mem_ctrls.num_reads::switch_cpus0.dtb.walker         1142                       # Number of read requests responded to by this memory
system.mem_ctrls.num_reads::switch_cpus0.itb.walker          242                       # Number of read requests responded to by this memory
system.mem_ctrls.num_reads::switch_cpus0.inst         8801                       # Number of read requests responded to by this memory
system.mem_ctrls.num_reads::switch_cpus0.data       303655                       # Number of read requests responded to by this memory
system.mem_ctrls.num_reads::switch_cpus1.dtb.walker          797                       # Number of read requests responded to by this memory
system.mem_ctrls.num_reads::switch_cpus1.itb.walker          161                       # Number of read requests responded to by this memory
system.mem_ctrls.num_reads::switch_cpus1.inst         9493                       # Number of read requests responded to by this memory
system.mem_ctrls.num_reads::switch_cpus1.data       296391                       # Number of read requests responded to by this memory
system.mem_ctrls.num_reads::switch_cpus2.dtb.walker          851                       # Number of read requests responded to by this memory
system.mem_ctrls.num_reads::switch_cpus2.itb.walker          126                       # Number of read requests responded to by this memory
system.mem_ctrls.num_reads::switch_cpus2.inst        12913                       # Number of read requests responded to by this memory
system.mem_ctrls.num_reads::switch_cpus2.data       313014                       # Number of read requests responded to by this memory
system.mem_ctrls.num_reads::switch_cpus3.dtb.walker          760                       # Number of read requests responded to by this memory
system.mem_ctrls.num_reads::switch_cpus3.itb.walker          114                       # Number of read requests responded to by this memory
system.mem_ctrls.num_reads::switch_cpus3.inst         9125                       # Number of read requests responded to by this memory
system.mem_ctrls.num_reads::switch_cpus3.data       290201                       # Number of read requests responded to by this memory
system.mem_ctrls.num_reads::switch_cpus4.dtb.walker          754                       # Number of read requests responded to by this memory
system.mem_ctrls.num_reads::switch_cpus4.itb.walker          103                       # Number of read requests responded to by this memory
system.mem_ctrls.num_reads::switch_cpus4.inst         8617                       # Number of read requests responded to by this memory
system.mem_ctrls.num_reads::switch_cpus4.data       292327                       # Number of read requests responded to by this memory
system.mem_ctrls.num_reads::switch_cpus5.dtb.walker          968                       # Number of read requests responded to by this memory
system.mem_ctrls.num_reads::switch_cpus5.itb.walker          258                       # Number of read requests responded to by this memory
system.mem_ctrls.num_reads::switch_cpus5.inst         8781                       # Number of read requests responded to by this memory
system.mem_ctrls.num_reads::switch_cpus5.data       291311                       # Number of read requests responded to by this memory
system.mem_ctrls.num_reads::switch_cpus6.dtb.walker         1340                       # Number of read requests responded to by this memory
system.mem_ctrls.num_reads::switch_cpus6.itb.walker          541                       # Number of read requests responded to by this memory
system.mem_ctrls.num_reads::switch_cpus6.inst        13356                       # Number of read requests responded to by this memory
system.mem_ctrls.num_reads::switch_cpus6.data       305076                       # Number of read requests responded to by this memory
system.mem_ctrls.num_reads::switch_cpus7.dtb.walker          883                       # Number of read requests responded to by this memory
system.mem_ctrls.num_reads::switch_cpus7.itb.walker          194                       # Number of read requests responded to by this memory
system.mem_ctrls.num_reads::switch_cpus7.inst        10158                       # Number of read requests responded to by this memory
system.mem_ctrls.num_reads::switch_cpus7.data       298790                       # Number of read requests responded to by this memory
system.mem_ctrls.num_reads::l2.prefetcher       647592                       # Number of read requests responded to by this memory
system.mem_ctrls.num_reads::cpu0.inst               4                       # Number of read requests responded to by this memory
system.mem_ctrls.num_reads::cpu0.data               3                       # Number of read requests responded to by this memory
system.mem_ctrls.num_reads::cpu6.inst               1                       # Number of read requests responded to by this memory
system.mem_ctrls.num_reads::cpu6.data               2                       # Number of read requests responded to by this memory
system.mem_ctrls.num_reads::cpu7.inst               3                       # Number of read requests responded to by this memory
system.mem_ctrls.num_reads::cpu7.data               3                       # Number of read requests responded to by this memory
system.mem_ctrls.num_reads::total             3128851                       # Number of read requests responded to by this memory
system.mem_ctrls.num_writes::writebacks        319564                       # Number of write requests responded to by this memory
system.mem_ctrls.num_writes::realview.ide          576                       # Number of write requests responded to by this memory
system.mem_ctrls.num_writes::total             320140                       # Number of write requests responded to by this memory
system.mem_ctrls.bw_read::switch_cpus0.dtb.walker       191998                       # Total read bandwidth from this memory (bytes/s)
system.mem_ctrls.bw_read::switch_cpus0.itb.walker        40686                       # Total read bandwidth from this memory (bytes/s)
system.mem_ctrls.bw_read::switch_cpus0.inst      1479659                       # Total read bandwidth from this memory (bytes/s)
system.mem_ctrls.bw_read::switch_cpus0.data     51051690                       # Total read bandwidth from this memory (bytes/s)
system.mem_ctrls.bw_read::switch_cpus1.dtb.walker       133995                       # Total read bandwidth from this memory (bytes/s)
system.mem_ctrls.bw_read::switch_cpus1.itb.walker        27068                       # Total read bandwidth from this memory (bytes/s)
system.mem_ctrls.bw_read::switch_cpus1.inst      1596001                       # Total read bandwidth from this memory (bytes/s)
system.mem_ctrls.bw_read::switch_cpus1.data     49830437                       # Total read bandwidth from this memory (bytes/s)
system.mem_ctrls.bw_read::switch_cpus2.dtb.walker       143074                       # Total read bandwidth from this memory (bytes/s)
system.mem_ctrls.bw_read::switch_cpus2.itb.walker        21184                       # Total read bandwidth from this memory (bytes/s)
system.mem_ctrls.bw_read::switch_cpus2.inst      2170985                       # Total read bandwidth from this memory (bytes/s)
system.mem_ctrls.bw_read::switch_cpus2.data     52625162                       # Total read bandwidth from this memory (bytes/s)
system.mem_ctrls.bw_read::switch_cpus3.dtb.walker       127774                       # Total read bandwidth from this memory (bytes/s)
system.mem_ctrls.bw_read::switch_cpus3.itb.walker        19166                       # Total read bandwidth from this memory (bytes/s)
system.mem_ctrls.bw_read::switch_cpus3.inst      1534131                       # Total read bandwidth from this memory (bytes/s)
system.mem_ctrls.bw_read::switch_cpus3.data     48789750                       # Total read bandwidth from this memory (bytes/s)
system.mem_ctrls.bw_read::switch_cpus4.dtb.walker       126765                       # Total read bandwidth from this memory (bytes/s)
system.mem_ctrls.bw_read::switch_cpus4.itb.walker        17317                       # Total read bandwidth from this memory (bytes/s)
system.mem_ctrls.bw_read::switch_cpus4.inst      1448724                       # Total read bandwidth from this memory (bytes/s)
system.mem_ctrls.bw_read::switch_cpus4.data     49147181                       # Total read bandwidth from this memory (bytes/s)
system.mem_ctrls.bw_read::switch_cpus5.dtb.walker       162744                       # Total read bandwidth from this memory (bytes/s)
system.mem_ctrls.bw_read::switch_cpus5.itb.walker        43376                       # Total read bandwidth from this memory (bytes/s)
system.mem_ctrls.bw_read::switch_cpus5.inst      1476297                       # Total read bandwidth from this memory (bytes/s)
system.mem_ctrls.bw_read::switch_cpus5.data     48976367                       # Total read bandwidth from this memory (bytes/s)
system.mem_ctrls.bw_read::switch_cpus6.dtb.walker       225286                       # Total read bandwidth from this memory (bytes/s)
system.mem_ctrls.bw_read::switch_cpus6.itb.walker        90955                       # Total read bandwidth from this memory (bytes/s)
system.mem_ctrls.bw_read::switch_cpus6.inst      2245464                       # Total read bandwidth from this memory (bytes/s)
system.mem_ctrls.bw_read::switch_cpus6.data     51290594                       # Total read bandwidth from this memory (bytes/s)
system.mem_ctrls.bw_read::switch_cpus7.dtb.walker       148453                       # Total read bandwidth from this memory (bytes/s)
system.mem_ctrls.bw_read::switch_cpus7.itb.walker        32616                       # Total read bandwidth from this memory (bytes/s)
system.mem_ctrls.bw_read::switch_cpus7.inst      1707803                       # Total read bandwidth from this memory (bytes/s)
system.mem_ctrls.bw_read::switch_cpus7.data     50233766                       # Total read bandwidth from this memory (bytes/s)
system.mem_ctrls.bw_read::l2.prefetcher     108875750                       # Total read bandwidth from this memory (bytes/s)
system.mem_ctrls.bw_read::cpu0.inst               672                       # Total read bandwidth from this memory (bytes/s)
system.mem_ctrls.bw_read::cpu0.data               504                       # Total read bandwidth from this memory (bytes/s)
system.mem_ctrls.bw_read::cpu6.inst               168                       # Total read bandwidth from this memory (bytes/s)
system.mem_ctrls.bw_read::cpu6.data               336                       # Total read bandwidth from this memory (bytes/s)
system.mem_ctrls.bw_read::cpu7.inst               504                       # Total read bandwidth from this memory (bytes/s)
system.mem_ctrls.bw_read::cpu7.data               504                       # Total read bandwidth from this memory (bytes/s)
system.mem_ctrls.bw_read::total             526034909                       # Total read bandwidth from this memory (bytes/s)
system.mem_ctrls.bw_inst_read::switch_cpus0.inst      1479659                       # Instruction read bandwidth from this memory (bytes/s)
system.mem_ctrls.bw_inst_read::switch_cpus1.inst      1596001                       # Instruction read bandwidth from this memory (bytes/s)
system.mem_ctrls.bw_inst_read::switch_cpus2.inst      2170985                       # Instruction read bandwidth from this memory (bytes/s)
system.mem_ctrls.bw_inst_read::switch_cpus3.inst      1534131                       # Instruction read bandwidth from this memory (bytes/s)
system.mem_ctrls.bw_inst_read::switch_cpus4.inst      1448724                       # Instruction read bandwidth from this memory (bytes/s)
system.mem_ctrls.bw_inst_read::switch_cpus5.inst      1476297                       # Instruction read bandwidth from this memory (bytes/s)
system.mem_ctrls.bw_inst_read::switch_cpus6.inst      2245464                       # Instruction read bandwidth from this memory (bytes/s)
system.mem_ctrls.bw_inst_read::switch_cpus7.inst      1707803                       # Instruction read bandwidth from this memory (bytes/s)
system.mem_ctrls.bw_inst_read::cpu0.inst          672                       # Instruction read bandwidth from this memory (bytes/s)
system.mem_ctrls.bw_inst_read::cpu6.inst          168                       # Instruction read bandwidth from this memory (bytes/s)
system.mem_ctrls.bw_inst_read::cpu7.inst          504                       # Instruction read bandwidth from this memory (bytes/s)
system.mem_ctrls.bw_inst_read::total         13660410                       # Instruction read bandwidth from this memory (bytes/s)
system.mem_ctrls.bw_write::writebacks        53726374                       # Write bandwidth from this memory (bytes/s)
system.mem_ctrls.bw_write::realview.ide         96839                       # Write bandwidth from this memory (bytes/s)
system.mem_ctrls.bw_write::total             53823214                       # Write bandwidth from this memory (bytes/s)
system.mem_ctrls.bw_total::writebacks        53726374                       # Total bandwidth to/from this memory (bytes/s)
system.mem_ctrls.bw_total::switch_cpus0.dtb.walker       191998                       # Total bandwidth to/from this memory (bytes/s)
system.mem_ctrls.bw_total::switch_cpus0.itb.walker        40686                       # Total bandwidth to/from this memory (bytes/s)
system.mem_ctrls.bw_total::switch_cpus0.inst      1479659                       # Total bandwidth to/from this memory (bytes/s)
system.mem_ctrls.bw_total::switch_cpus0.data     51051690                       # Total bandwidth to/from this memory (bytes/s)
system.mem_ctrls.bw_total::switch_cpus1.dtb.walker       133995                       # Total bandwidth to/from this memory (bytes/s)
system.mem_ctrls.bw_total::switch_cpus1.itb.walker        27068                       # Total bandwidth to/from this memory (bytes/s)
system.mem_ctrls.bw_total::switch_cpus1.inst      1596001                       # Total bandwidth to/from this memory (bytes/s)
system.mem_ctrls.bw_total::switch_cpus1.data     49830437                       # Total bandwidth to/from this memory (bytes/s)
system.mem_ctrls.bw_total::switch_cpus2.dtb.walker       143074                       # Total bandwidth to/from this memory (bytes/s)
system.mem_ctrls.bw_total::switch_cpus2.itb.walker        21184                       # Total bandwidth to/from this memory (bytes/s)
system.mem_ctrls.bw_total::switch_cpus2.inst      2170985                       # Total bandwidth to/from this memory (bytes/s)
system.mem_ctrls.bw_total::switch_cpus2.data     52625162                       # Total bandwidth to/from this memory (bytes/s)
system.mem_ctrls.bw_total::switch_cpus3.dtb.walker       127774                       # Total bandwidth to/from this memory (bytes/s)
system.mem_ctrls.bw_total::switch_cpus3.itb.walker        19166                       # Total bandwidth to/from this memory (bytes/s)
system.mem_ctrls.bw_total::switch_cpus3.inst      1534131                       # Total bandwidth to/from this memory (bytes/s)
system.mem_ctrls.bw_total::switch_cpus3.data     48789750                       # Total bandwidth to/from this memory (bytes/s)
system.mem_ctrls.bw_total::switch_cpus4.dtb.walker       126765                       # Total bandwidth to/from this memory (bytes/s)
system.mem_ctrls.bw_total::switch_cpus4.itb.walker        17317                       # Total bandwidth to/from this memory (bytes/s)
system.mem_ctrls.bw_total::switch_cpus4.inst      1448724                       # Total bandwidth to/from this memory (bytes/s)
system.mem_ctrls.bw_total::switch_cpus4.data     49147181                       # Total bandwidth to/from this memory (bytes/s)
system.mem_ctrls.bw_total::switch_cpus5.dtb.walker       162744                       # Total bandwidth to/from this memory (bytes/s)
system.mem_ctrls.bw_total::switch_cpus5.itb.walker        43376                       # Total bandwidth to/from this memory (bytes/s)
system.mem_ctrls.bw_total::switch_cpus5.inst      1476297                       # Total bandwidth to/from this memory (bytes/s)
system.mem_ctrls.bw_total::switch_cpus5.data     48976367                       # Total bandwidth to/from this memory (bytes/s)
system.mem_ctrls.bw_total::switch_cpus6.dtb.walker       225286                       # Total bandwidth to/from this memory (bytes/s)
system.mem_ctrls.bw_total::switch_cpus6.itb.walker        90955                       # Total bandwidth to/from this memory (bytes/s)
system.mem_ctrls.bw_total::switch_cpus6.inst      2245464                       # Total bandwidth to/from this memory (bytes/s)
system.mem_ctrls.bw_total::switch_cpus6.data     51290594                       # Total bandwidth to/from this memory (bytes/s)
system.mem_ctrls.bw_total::switch_cpus7.dtb.walker       148453                       # Total bandwidth to/from this memory (bytes/s)
system.mem_ctrls.bw_total::switch_cpus7.itb.walker        32616                       # Total bandwidth to/from this memory (bytes/s)
system.mem_ctrls.bw_total::switch_cpus7.inst      1707803                       # Total bandwidth to/from this memory (bytes/s)
system.mem_ctrls.bw_total::switch_cpus7.data     50233766                       # Total bandwidth to/from this memory (bytes/s)
system.mem_ctrls.bw_total::realview.ide         96839                       # Total bandwidth to/from this memory (bytes/s)
system.mem_ctrls.bw_total::l2.prefetcher    108875750                       # Total bandwidth to/from this memory (bytes/s)
system.mem_ctrls.bw_total::cpu0.inst              672                       # Total bandwidth to/from this memory (bytes/s)
system.mem_ctrls.bw_total::cpu0.data              504                       # Total bandwidth to/from this memory (bytes/s)
system.mem_ctrls.bw_total::cpu6.inst              168                       # Total bandwidth to/from this memory (bytes/s)
system.mem_ctrls.bw_total::cpu6.data              336                       # Total bandwidth to/from this memory (bytes/s)
system.mem_ctrls.bw_total::cpu7.inst              504                       # Total bandwidth to/from this memory (bytes/s)
system.mem_ctrls.bw_total::cpu7.data              504                       # Total bandwidth to/from this memory (bytes/s)
system.mem_ctrls.bw_total::total            579858123                       # Total bandwidth to/from this memory (bytes/s)
system.mem_ctrls.readReqs                     3128836                       # Number of read requests accepted
system.mem_ctrls.writeReqs                     320140                       # Number of write requests accepted
system.mem_ctrls.readBursts                   3128836                       # Number of DRAM read bursts, including those serviced by the write queue
system.mem_ctrls.writeBursts                   320140                       # Number of DRAM write bursts, including those merged in the write queue
system.mem_ctrls.bytesReadDRAM              200069312                       # Total number of bytes read from DRAM
system.mem_ctrls.bytesReadWrQ                  176192                       # Total number of bytes read from write queue
system.mem_ctrls.bytesWritten                20486656                       # Total number of bytes written to DRAM
system.mem_ctrls.bytesReadSys               200245504                       # Total read bytes from the system interface side
system.mem_ctrls.bytesWrittenSys             20488960                       # Total written bytes from the system interface side
system.mem_ctrls.servicedByWrQ                   2753                       # Number of DRAM read bursts serviced by the write queue
system.mem_ctrls.mergedWrBursts                     4                       # Number of DRAM write bursts merged with an existing one
system.mem_ctrls.neitherReadNorWriteReqs        54973                       # Number of requests that are neither read nor write
system.mem_ctrls.perBankRdBursts::0            192783                       # Per bank write bursts
system.mem_ctrls.perBankRdBursts::1            243973                       # Per bank write bursts
system.mem_ctrls.perBankRdBursts::2            265640                       # Per bank write bursts
system.mem_ctrls.perBankRdBursts::3            234412                       # Per bank write bursts
system.mem_ctrls.perBankRdBursts::4            196675                       # Per bank write bursts
system.mem_ctrls.perBankRdBursts::5            162159                       # Per bank write bursts
system.mem_ctrls.perBankRdBursts::6            192297                       # Per bank write bursts
system.mem_ctrls.perBankRdBursts::7            179413                       # Per bank write bursts
system.mem_ctrls.perBankRdBursts::8            175195                       # Per bank write bursts
system.mem_ctrls.perBankRdBursts::9            182173                       # Per bank write bursts
system.mem_ctrls.perBankRdBursts::10           185989                       # Per bank write bursts
system.mem_ctrls.perBankRdBursts::11           191338                       # Per bank write bursts
system.mem_ctrls.perBankRdBursts::12           166322                       # Per bank write bursts
system.mem_ctrls.perBankRdBursts::13           141626                       # Per bank write bursts
system.mem_ctrls.perBankRdBursts::14           203890                       # Per bank write bursts
system.mem_ctrls.perBankRdBursts::15           212198                       # Per bank write bursts
system.mem_ctrls.perBankWrBursts::0             23165                       # Per bank write bursts
system.mem_ctrls.perBankWrBursts::1             21668                       # Per bank write bursts
system.mem_ctrls.perBankWrBursts::2             23664                       # Per bank write bursts
system.mem_ctrls.perBankWrBursts::3             27114                       # Per bank write bursts
system.mem_ctrls.perBankWrBursts::4             22369                       # Per bank write bursts
system.mem_ctrls.perBankWrBursts::5             17499                       # Per bank write bursts
system.mem_ctrls.perBankWrBursts::6             18845                       # Per bank write bursts
system.mem_ctrls.perBankWrBursts::7             17844                       # Per bank write bursts
system.mem_ctrls.perBankWrBursts::8             20749                       # Per bank write bursts
system.mem_ctrls.perBankWrBursts::9             15843                       # Per bank write bursts
system.mem_ctrls.perBankWrBursts::10            20994                       # Per bank write bursts
system.mem_ctrls.perBankWrBursts::11            19082                       # Per bank write bursts
system.mem_ctrls.perBankWrBursts::12            18218                       # Per bank write bursts
system.mem_ctrls.perBankWrBursts::13            12319                       # Per bank write bursts
system.mem_ctrls.perBankWrBursts::14            21859                       # Per bank write bursts
system.mem_ctrls.perBankWrBursts::15            18872                       # Per bank write bursts
system.mem_ctrls.numRdRetry                         0                       # Number of times read queue was full causing retry
system.mem_ctrls.numWrRetry                         0                       # Number of times write queue was full causing retry
system.mem_ctrls.totGap                  380671401000                       # Total gap between requests
system.mem_ctrls.readPktSize::0                     0                       # Read request sizes (log2)
system.mem_ctrls.readPktSize::1                     0                       # Read request sizes (log2)
system.mem_ctrls.readPktSize::2                     0                       # Read request sizes (log2)
system.mem_ctrls.readPktSize::3                     0                       # Read request sizes (log2)
system.mem_ctrls.readPktSize::4                     0                       # Read request sizes (log2)
system.mem_ctrls.readPktSize::5                     0                       # Read request sizes (log2)
system.mem_ctrls.readPktSize::6               3128836                       # Read request sizes (log2)
system.mem_ctrls.writePktSize::0                    0                       # Write request sizes (log2)
system.mem_ctrls.writePktSize::1                    0                       # Write request sizes (log2)
system.mem_ctrls.writePktSize::2                    0                       # Write request sizes (log2)
system.mem_ctrls.writePktSize::3                    0                       # Write request sizes (log2)
system.mem_ctrls.writePktSize::4                    0                       # Write request sizes (log2)
system.mem_ctrls.writePktSize::5                    0                       # Write request sizes (log2)
system.mem_ctrls.writePktSize::6               320140                       # Write request sizes (log2)
system.mem_ctrls.rdQLenPdf::0                 1962685                       # What read queue length does an incoming req see
system.mem_ctrls.rdQLenPdf::1                  608548                       # What read queue length does an incoming req see
system.mem_ctrls.rdQLenPdf::2                  181996                       # What read queue length does an incoming req see
system.mem_ctrls.rdQLenPdf::3                   95696                       # What read queue length does an incoming req see
system.mem_ctrls.rdQLenPdf::4                   65687                       # What read queue length does an incoming req see
system.mem_ctrls.rdQLenPdf::5                   52638                       # What read queue length does an incoming req see
system.mem_ctrls.rdQLenPdf::6                   43293                       # What read queue length does an incoming req see
system.mem_ctrls.rdQLenPdf::7                   36270                       # What read queue length does an incoming req see
system.mem_ctrls.rdQLenPdf::8                   29326                       # What read queue length does an incoming req see
system.mem_ctrls.rdQLenPdf::9                   17467                       # What read queue length does an incoming req see
system.mem_ctrls.rdQLenPdf::10                  11329                       # What read queue length does an incoming req see
system.mem_ctrls.rdQLenPdf::11                   8819                       # What read queue length does an incoming req see
system.mem_ctrls.rdQLenPdf::12                   5269                       # What read queue length does an incoming req see
system.mem_ctrls.rdQLenPdf::13                   3370                       # What read queue length does an incoming req see
system.mem_ctrls.rdQLenPdf::14                   2255                       # What read queue length does an incoming req see
system.mem_ctrls.rdQLenPdf::15                   1435                       # What read queue length does an incoming req see
system.mem_ctrls.rdQLenPdf::16                      0                       # What read queue length does an incoming req see
system.mem_ctrls.rdQLenPdf::17                      0                       # What read queue length does an incoming req see
system.mem_ctrls.rdQLenPdf::18                      0                       # What read queue length does an incoming req see
system.mem_ctrls.rdQLenPdf::19                      0                       # What read queue length does an incoming req see
system.mem_ctrls.rdQLenPdf::20                      0                       # What read queue length does an incoming req see
system.mem_ctrls.rdQLenPdf::21                      0                       # What read queue length does an incoming req see
system.mem_ctrls.rdQLenPdf::22                      0                       # What read queue length does an incoming req see
system.mem_ctrls.rdQLenPdf::23                      0                       # What read queue length does an incoming req see
system.mem_ctrls.rdQLenPdf::24                      0                       # What read queue length does an incoming req see
system.mem_ctrls.rdQLenPdf::25                      0                       # What read queue length does an incoming req see
system.mem_ctrls.rdQLenPdf::26                      0                       # What read queue length does an incoming req see
system.mem_ctrls.rdQLenPdf::27                      0                       # What read queue length does an incoming req see
system.mem_ctrls.rdQLenPdf::28                      0                       # What read queue length does an incoming req see
system.mem_ctrls.rdQLenPdf::29                      0                       # What read queue length does an incoming req see
system.mem_ctrls.rdQLenPdf::30                      0                       # What read queue length does an incoming req see
system.mem_ctrls.rdQLenPdf::31                      0                       # What read queue length does an incoming req see
system.mem_ctrls.wrQLenPdf::0                       1                       # What write queue length does an incoming req see
system.mem_ctrls.wrQLenPdf::1                       1                       # What write queue length does an incoming req see
system.mem_ctrls.wrQLenPdf::2                       1                       # What write queue length does an incoming req see
system.mem_ctrls.wrQLenPdf::3                       1                       # What write queue length does an incoming req see
system.mem_ctrls.wrQLenPdf::4                       1                       # What write queue length does an incoming req see
system.mem_ctrls.wrQLenPdf::5                       1                       # What write queue length does an incoming req see
system.mem_ctrls.wrQLenPdf::6                       1                       # What write queue length does an incoming req see
system.mem_ctrls.wrQLenPdf::7                       1                       # What write queue length does an incoming req see
system.mem_ctrls.wrQLenPdf::8                       1                       # What write queue length does an incoming req see
system.mem_ctrls.wrQLenPdf::9                       1                       # What write queue length does an incoming req see
system.mem_ctrls.wrQLenPdf::10                      1                       # What write queue length does an incoming req see
system.mem_ctrls.wrQLenPdf::11                      1                       # What write queue length does an incoming req see
system.mem_ctrls.wrQLenPdf::12                      1                       # What write queue length does an incoming req see
system.mem_ctrls.wrQLenPdf::13                      1                       # What write queue length does an incoming req see
system.mem_ctrls.wrQLenPdf::14                      1                       # What write queue length does an incoming req see
system.mem_ctrls.wrQLenPdf::15                   6975                       # What write queue length does an incoming req see
system.mem_ctrls.wrQLenPdf::16                   7401                       # What write queue length does an incoming req see
system.mem_ctrls.wrQLenPdf::17                  14817                       # What write queue length does an incoming req see
system.mem_ctrls.wrQLenPdf::18                  16582                       # What write queue length does an incoming req see
system.mem_ctrls.wrQLenPdf::19                  17443                       # What write queue length does an incoming req see
system.mem_ctrls.wrQLenPdf::20                  18034                       # What write queue length does an incoming req see
system.mem_ctrls.wrQLenPdf::21                  18473                       # What write queue length does an incoming req see
system.mem_ctrls.wrQLenPdf::22                  18884                       # What write queue length does an incoming req see
system.mem_ctrls.wrQLenPdf::23                  19282                       # What write queue length does an incoming req see
system.mem_ctrls.wrQLenPdf::24                  19586                       # What write queue length does an incoming req see
system.mem_ctrls.wrQLenPdf::25                  19880                       # What write queue length does an incoming req see
system.mem_ctrls.wrQLenPdf::26                  20168                       # What write queue length does an incoming req see
system.mem_ctrls.wrQLenPdf::27                  20455                       # What write queue length does an incoming req see
system.mem_ctrls.wrQLenPdf::28                  20938                       # What write queue length does an incoming req see
system.mem_ctrls.wrQLenPdf::29                  20322                       # What write queue length does an incoming req see
system.mem_ctrls.wrQLenPdf::30                  20136                       # What write queue length does an incoming req see
system.mem_ctrls.wrQLenPdf::31                  19930                       # What write queue length does an incoming req see
system.mem_ctrls.wrQLenPdf::32                  19464                       # What write queue length does an incoming req see
system.mem_ctrls.wrQLenPdf::33                    485                       # What write queue length does an incoming req see
system.mem_ctrls.wrQLenPdf::34                    258                       # What write queue length does an incoming req see
system.mem_ctrls.wrQLenPdf::35                    155                       # What write queue length does an incoming req see
system.mem_ctrls.wrQLenPdf::36                    108                       # What write queue length does an incoming req see
system.mem_ctrls.wrQLenPdf::37                     92                       # What write queue length does an incoming req see
system.mem_ctrls.wrQLenPdf::38                     66                       # What write queue length does an incoming req see
system.mem_ctrls.wrQLenPdf::39                     51                       # What write queue length does an incoming req see
system.mem_ctrls.wrQLenPdf::40                     34                       # What write queue length does an incoming req see
system.mem_ctrls.wrQLenPdf::41                     25                       # What write queue length does an incoming req see
system.mem_ctrls.wrQLenPdf::42                     19                       # What write queue length does an incoming req see
system.mem_ctrls.wrQLenPdf::43                     15                       # What write queue length does an incoming req see
system.mem_ctrls.wrQLenPdf::44                     12                       # What write queue length does an incoming req see
system.mem_ctrls.wrQLenPdf::45                     10                       # What write queue length does an incoming req see
system.mem_ctrls.wrQLenPdf::46                      7                       # What write queue length does an incoming req see
system.mem_ctrls.wrQLenPdf::47                      7                       # What write queue length does an incoming req see
system.mem_ctrls.wrQLenPdf::48                      2                       # What write queue length does an incoming req see
system.mem_ctrls.wrQLenPdf::49                      1                       # What write queue length does an incoming req see
system.mem_ctrls.wrQLenPdf::50                      1                       # What write queue length does an incoming req see
system.mem_ctrls.wrQLenPdf::51                      2                       # What write queue length does an incoming req see
system.mem_ctrls.wrQLenPdf::52                      1                       # What write queue length does an incoming req see
system.mem_ctrls.wrQLenPdf::53                      0                       # What write queue length does an incoming req see
system.mem_ctrls.wrQLenPdf::54                      0                       # What write queue length does an incoming req see
system.mem_ctrls.wrQLenPdf::55                      0                       # What write queue length does an incoming req see
system.mem_ctrls.wrQLenPdf::56                      0                       # What write queue length does an incoming req see
system.mem_ctrls.wrQLenPdf::57                      0                       # What write queue length does an incoming req see
system.mem_ctrls.wrQLenPdf::58                      0                       # What write queue length does an incoming req see
system.mem_ctrls.wrQLenPdf::59                      0                       # What write queue length does an incoming req see
system.mem_ctrls.wrQLenPdf::60                      0                       # What write queue length does an incoming req see
system.mem_ctrls.wrQLenPdf::61                      0                       # What write queue length does an incoming req see
system.mem_ctrls.wrQLenPdf::62                      0                       # What write queue length does an incoming req see
system.mem_ctrls.wrQLenPdf::63                      0                       # What write queue length does an incoming req see
system.mem_ctrls.bytesPerActivate::samples      1716953                       # Bytes accessed per row activation
system.mem_ctrls.bytesPerActivate::mean    128.457592                       # Bytes accessed per row activation
system.mem_ctrls.bytesPerActivate::gmean   100.434230                       # Bytes accessed per row activation
system.mem_ctrls.bytesPerActivate::stdev   133.469080                       # Bytes accessed per row activation
system.mem_ctrls.bytesPerActivate::0-127       980380     57.10%     57.10% # Bytes accessed per row activation
system.mem_ctrls.bytesPerActivate::128-255       556105     32.39%     89.49% # Bytes accessed per row activation
system.mem_ctrls.bytesPerActivate::256-383       118059      6.88%     96.37% # Bytes accessed per row activation
system.mem_ctrls.bytesPerActivate::384-511        18556      1.08%     97.45% # Bytes accessed per row activation
system.mem_ctrls.bytesPerActivate::512-639        12697      0.74%     98.19% # Bytes accessed per row activation
system.mem_ctrls.bytesPerActivate::640-767         7082      0.41%     98.60% # Bytes accessed per row activation
system.mem_ctrls.bytesPerActivate::768-895         3952      0.23%     98.83% # Bytes accessed per row activation
system.mem_ctrls.bytesPerActivate::896-1023         2733      0.16%     98.99% # Bytes accessed per row activation
system.mem_ctrls.bytesPerActivate::1024-1151        17389      1.01%    100.00% # Bytes accessed per row activation
system.mem_ctrls.bytesPerActivate::total      1716953                       # Bytes accessed per row activation
system.mem_ctrls.rdPerTurnAround::samples        19012                       # Reads before turning the bus around for writes
system.mem_ctrls.rdPerTurnAround::mean     164.417894                       # Reads before turning the bus around for writes
system.mem_ctrls.rdPerTurnAround::gmean    111.082652                       # Reads before turning the bus around for writes
system.mem_ctrls.rdPerTurnAround::stdev    202.454771                       # Reads before turning the bus around for writes
system.mem_ctrls.rdPerTurnAround::0-1023        18993     99.90%     99.90% # Reads before turning the bus around for writes
system.mem_ctrls.rdPerTurnAround::1024-2047           18      0.09%     99.99% # Reads before turning the bus around for writes
system.mem_ctrls.rdPerTurnAround::19456-20479            1      0.01%    100.00% # Reads before turning the bus around for writes
system.mem_ctrls.rdPerTurnAround::total         19012                       # Reads before turning the bus around for writes
system.mem_ctrls.wrPerTurnAround::samples        19012                       # Writes before turning the bus around for reads
system.mem_ctrls.wrPerTurnAround::mean      16.836945                       # Writes before turning the bus around for reads
system.mem_ctrls.wrPerTurnAround::gmean     16.800564                       # Writes before turning the bus around for reads
system.mem_ctrls.wrPerTurnAround::stdev      1.140734                       # Writes before turning the bus around for reads
system.mem_ctrls.wrPerTurnAround::16            11516     60.57%     60.57% # Writes before turning the bus around for reads
system.mem_ctrls.wrPerTurnAround::17              419      2.20%     62.78% # Writes before turning the bus around for reads
system.mem_ctrls.wrPerTurnAround::18             6245     32.85%     95.62% # Writes before turning the bus around for reads
system.mem_ctrls.wrPerTurnAround::19              599      3.15%     98.77% # Writes before turning the bus around for reads
system.mem_ctrls.wrPerTurnAround::20              123      0.65%     99.42% # Writes before turning the bus around for reads
system.mem_ctrls.wrPerTurnAround::21               52      0.27%     99.69% # Writes before turning the bus around for reads
system.mem_ctrls.wrPerTurnAround::22               26      0.14%     99.83% # Writes before turning the bus around for reads
system.mem_ctrls.wrPerTurnAround::23               11      0.06%     99.89% # Writes before turning the bus around for reads
system.mem_ctrls.wrPerTurnAround::24                9      0.05%     99.94% # Writes before turning the bus around for reads
system.mem_ctrls.wrPerTurnAround::25                2      0.01%     99.95% # Writes before turning the bus around for reads
system.mem_ctrls.wrPerTurnAround::26                2      0.01%     99.96% # Writes before turning the bus around for reads
system.mem_ctrls.wrPerTurnAround::27                3      0.02%     99.97% # Writes before turning the bus around for reads
system.mem_ctrls.wrPerTurnAround::30                1      0.01%     99.98% # Writes before turning the bus around for reads
system.mem_ctrls.wrPerTurnAround::31                1      0.01%     99.98% # Writes before turning the bus around for reads
system.mem_ctrls.wrPerTurnAround::32                2      0.01%     99.99% # Writes before turning the bus around for reads
system.mem_ctrls.wrPerTurnAround::33                1      0.01%    100.00% # Writes before turning the bus around for reads
system.mem_ctrls.wrPerTurnAround::total         19012                       # Writes before turning the bus around for reads
system.mem_ctrls.totQLat                  70595549654                       # Total ticks spent queuing
system.mem_ctrls.totMemAccLat            129209605904                       # Total ticks spent from burst creation until serviced by the DRAM
system.mem_ctrls.totBusLat                15630415000                       # Total ticks spent in databus transfers
system.mem_ctrls.avgQLat                     22582.75                       # Average queueing delay per DRAM burst
system.mem_ctrls.avgBusLat                    5000.00                       # Average bus latency per DRAM burst
system.mem_ctrls.avgMemAccLat                41332.75                       # Average memory access latency per DRAM burst
system.mem_ctrls.avgRdBW                       525.57                       # Average DRAM read bandwidth in MiByte/s
system.mem_ctrls.avgWrBW                        53.82                       # Average achieved write bandwidth in MiByte/s
system.mem_ctrls.avgRdBWSys                    526.03                       # Average system read bandwidth in MiByte/s
system.mem_ctrls.avgWrBWSys                     53.82                       # Average system write bandwidth in MiByte/s
system.mem_ctrls.peakBW                      12800.00                       # Theoretical peak bandwidth in MiByte/s
system.mem_ctrls.busUtil                         4.53                       # Data bus utilization in percentage
system.mem_ctrls.busUtilRead                     4.11                       # Data bus utilization in percentage for reads
system.mem_ctrls.busUtilWrite                    0.42                       # Data bus utilization in percentage for writes
system.mem_ctrls.avgRdQLen                       1.41                       # Average read queue length when enqueuing
system.mem_ctrls.avgWrQLen                      24.93                       # Average write queue length when enqueuing
system.mem_ctrls.readRowHits                  1641946                       # Number of row buffer hits during reads
system.mem_ctrls.writeRowHits                   87284                       # Number of row buffer hits during writes
system.mem_ctrls.readRowHitRate                 52.52                       # Row buffer hit rate for reads
system.mem_ctrls.writeRowHitRate                27.26                       # Row buffer hit rate for writes
system.mem_ctrls.avgGap                     110372.30                       # Average gap between requests
system.mem_ctrls.pageHitRate                    50.18                       # Row buffer hit rate, read and write combined
system.mem_ctrls.memoryStateTime::IDLE     5562968320                       # Time in different power states
system.mem_ctrls.memoryStateTime::REF     12711400000                       # Time in different power states
system.mem_ctrls.memoryStateTime::PRE_PDN            0                       # Time in different power states
system.mem_ctrls.memoryStateTime::ACT    362395667930                       # Time in different power states
system.mem_ctrls.memoryStateTime::ACT_PDN            0                       # Time in different power states
system.mem_ctrls.actEnergy::0              6990119640                       # Energy for activate commands per rank (pJ)
system.mem_ctrls.actEnergy::1              5990007240                       # Energy for activate commands per rank (pJ)
system.mem_ctrls.preEnergy::0              3814053375                       # Energy for precharge commands per rank (pJ)
system.mem_ctrls.preEnergy::1              3268357125                       # Energy for precharge commands per rank (pJ)
system.mem_ctrls.readEnergy::0            13005306600                       # Energy for read commands per rank (pJ)
system.mem_ctrls.readEnergy::1            11378055000                       # Energy for read commands per rank (pJ)
system.mem_ctrls.writeEnergy::0            1115648640                       # Energy for write commands per rank (pJ)
system.mem_ctrls.writeEnergy::1             958625280                       # Energy for write commands per rank (pJ)
system.mem_ctrls.refreshEnergy::0         24863498400                       # Energy for refresh commands per rank (pJ)
system.mem_ctrls.refreshEnergy::1         24863498400                       # Energy for refresh commands per rank (pJ)
system.mem_ctrls.actBackEnergy::0        250720936155                       # Energy for active background per rank (pJ)
system.mem_ctrls.actBackEnergy::1        248662513395                       # Energy for active background per rank (pJ)
system.mem_ctrls.preBackEnergy::0          8471367750                       # Energy for precharge background per rank (pJ)
system.mem_ctrls.preBackEnergy::1         10277001750                       # Energy for precharge background per rank (pJ)
system.mem_ctrls.totalEnergy::0          308980930560                       # Total energy per rank (pJ)
system.mem_ctrls.totalEnergy::1          305398058190                       # Total energy per rank (pJ)
system.mem_ctrls.averagePower::0           811.676550                       # Core power per rank (mW)
system.mem_ctrls.averagePower::1           802.264534                       # Core power per rank (mW)
system.cpu_voltage_domain.voltage                   1                       # Voltage in Volts
system.cpu_clk_domain.clock                       500                       # Clock period in ticks
system.tol2bus.trans_dist::ReadReq            9776062                       # Transaction distribution
system.tol2bus.trans_dist::ReadResp           9775941                       # Transaction distribution
system.tol2bus.trans_dist::ReadRespWithInvalidate          120                       # Transaction distribution
system.tol2bus.trans_dist::WriteReq              4216                       # Transaction distribution
system.tol2bus.trans_dist::WriteResp             4216                       # Transaction distribution
system.tol2bus.trans_dist::Writeback           715936                       # Transaction distribution
system.tol2bus.trans_dist::HardPFReq          1429330                       # Transaction distribution
system.tol2bus.trans_dist::WriteInvalidateReq          576                       # Transaction distribution
system.tol2bus.trans_dist::UpgradeReq          436703                       # Transaction distribution
system.tol2bus.trans_dist::SCUpgradeReq         61996                       # Transaction distribution
system.tol2bus.trans_dist::UpgradeResp         498699                       # Transaction distribution
system.tol2bus.trans_dist::SCUpgradeFailReq         2548                       # Transaction distribution
system.tol2bus.trans_dist::UpgradeFailResp         2548                       # Transaction distribution
system.tol2bus.trans_dist::ReadExReq           385185                       # Transaction distribution
system.tol2bus.trans_dist::ReadExResp          385185                       # Transaction distribution
system.tol2bus.pkt_count_system.cpu0.icache.mem_side::system.l2.cpu_side       281814                       # Packet count per connected master and slave (bytes)
system.tol2bus.pkt_count_system.cpu0.dcache.mem_side::system.l2.cpu_side      1685051                       # Packet count per connected master and slave (bytes)
system.tol2bus.pkt_count_system.cpu0.itb.walker.dma::system.l2.cpu_side        18734                       # Packet count per connected master and slave (bytes)
system.tol2bus.pkt_count_system.cpu0.dtb.walker.dma::system.l2.cpu_side       479948                       # Packet count per connected master and slave (bytes)
system.tol2bus.pkt_count_system.cpu1.icache.mem_side::system.l2.cpu_side       317106                       # Packet count per connected master and slave (bytes)
system.tol2bus.pkt_count_system.cpu1.dcache.mem_side::system.l2.cpu_side      1550650                       # Packet count per connected master and slave (bytes)
system.tol2bus.pkt_count_system.cpu1.itb.walker.dma::system.l2.cpu_side        20792                       # Packet count per connected master and slave (bytes)
system.tol2bus.pkt_count_system.cpu1.dtb.walker.dma::system.l2.cpu_side       477457                       # Packet count per connected master and slave (bytes)
system.tol2bus.pkt_count_system.cpu2.icache.mem_side::system.l2.cpu_side       889852                       # Packet count per connected master and slave (bytes)
system.tol2bus.pkt_count_system.cpu2.dcache.mem_side::system.l2.cpu_side      1959039                       # Packet count per connected master and slave (bytes)
system.tol2bus.pkt_count_system.cpu2.itb.walker.dma::system.l2.cpu_side        30478                       # Packet count per connected master and slave (bytes)
system.tol2bus.pkt_count_system.cpu2.dtb.walker.dma::system.l2.cpu_side       539450                       # Packet count per connected master and slave (bytes)
system.tol2bus.pkt_count_system.cpu3.icache.mem_side::system.l2.cpu_side       293489                       # Packet count per connected master and slave (bytes)
system.tol2bus.pkt_count_system.cpu3.dcache.mem_side::system.l2.cpu_side      1528049                       # Packet count per connected master and slave (bytes)
system.tol2bus.pkt_count_system.cpu3.itb.walker.dma::system.l2.cpu_side        13783                       # Packet count per connected master and slave (bytes)
system.tol2bus.pkt_count_system.cpu3.dtb.walker.dma::system.l2.cpu_side       472867                       # Packet count per connected master and slave (bytes)
system.tol2bus.pkt_count_system.cpu4.icache.mem_side::system.l2.cpu_side       305634                       # Packet count per connected master and slave (bytes)
system.tol2bus.pkt_count_system.cpu4.dcache.mem_side::system.l2.cpu_side      1542799                       # Packet count per connected master and slave (bytes)
system.tol2bus.pkt_count_system.cpu4.itb.walker.dma::system.l2.cpu_side        14145                       # Packet count per connected master and slave (bytes)
system.tol2bus.pkt_count_system.cpu4.dtb.walker.dma::system.l2.cpu_side       468589                       # Packet count per connected master and slave (bytes)
system.tol2bus.pkt_count_system.cpu5.icache.mem_side::system.l2.cpu_side       335846                       # Packet count per connected master and slave (bytes)
system.tol2bus.pkt_count_system.cpu5.dcache.mem_side::system.l2.cpu_side      1587884                       # Packet count per connected master and slave (bytes)
system.tol2bus.pkt_count_system.cpu5.itb.walker.dma::system.l2.cpu_side        18961                       # Packet count per connected master and slave (bytes)
system.tol2bus.pkt_count_system.cpu5.dtb.walker.dma::system.l2.cpu_side       478253                       # Packet count per connected master and slave (bytes)
system.tol2bus.pkt_count_system.cpu6.icache.mem_side::system.l2.cpu_side       575626                       # Packet count per connected master and slave (bytes)
system.tol2bus.pkt_count_system.cpu6.dcache.mem_side::system.l2.cpu_side      1934569                       # Packet count per connected master and slave (bytes)
system.tol2bus.pkt_count_system.cpu6.itb.walker.dma::system.l2.cpu_side        31303                       # Packet count per connected master and slave (bytes)
system.tol2bus.pkt_count_system.cpu6.dtb.walker.dma::system.l2.cpu_side       494293                       # Packet count per connected master and slave (bytes)
system.tol2bus.pkt_count_system.cpu7.icache.mem_side::system.l2.cpu_side       371122                       # Packet count per connected master and slave (bytes)
system.tol2bus.pkt_count_system.cpu7.dcache.mem_side::system.l2.cpu_side      1609131                       # Packet count per connected master and slave (bytes)
system.tol2bus.pkt_count_system.cpu7.itb.walker.dma::system.l2.cpu_side        22968                       # Packet count per connected master and slave (bytes)
system.tol2bus.pkt_count_system.cpu7.dtb.walker.dma::system.l2.cpu_side       477254                       # Packet count per connected master and slave (bytes)
system.tol2bus.pkt_count::total              20826936                       # Packet count per connected master and slave (bytes)
system.tol2bus.pkt_size_system.cpu0.icache.mem_side::system.l2.cpu_side      9017920                       # Cumulative packet size per connected master and slave (bytes)
system.tol2bus.pkt_size_system.cpu0.dcache.mem_side::system.l2.cpu_side     52386539                       # Cumulative packet size per connected master and slave (bytes)
system.tol2bus.pkt_size_system.cpu0.itb.walker.dma::system.l2.cpu_side        33204                       # Cumulative packet size per connected master and slave (bytes)
system.tol2bus.pkt_size_system.cpu0.dtb.walker.dma::system.l2.cpu_side       944736                       # Cumulative packet size per connected master and slave (bytes)
system.tol2bus.pkt_size_system.cpu1.icache.mem_side::system.l2.cpu_side     10147392                       # Cumulative packet size per connected master and slave (bytes)
system.tol2bus.pkt_size_system.cpu1.dcache.mem_side::system.l2.cpu_side     46429911                       # Cumulative packet size per connected master and slave (bytes)
system.tol2bus.pkt_size_system.cpu1.itb.walker.dma::system.l2.cpu_side        29976                       # Cumulative packet size per connected master and slave (bytes)
system.tol2bus.pkt_size_system.cpu1.dtb.walker.dma::system.l2.cpu_side       933168                       # Cumulative packet size per connected master and slave (bytes)
system.tol2bus.pkt_size_system.cpu2.icache.mem_side::system.l2.cpu_side     28474688                       # Cumulative packet size per connected master and slave (bytes)
system.tol2bus.pkt_size_system.cpu2.dcache.mem_side::system.l2.cpu_side     61854464                       # Cumulative packet size per connected master and slave (bytes)
system.tol2bus.pkt_size_system.cpu2.itb.walker.dma::system.l2.cpu_side        46576                       # Cumulative packet size per connected master and slave (bytes)
system.tol2bus.pkt_size_system.cpu2.dtb.walker.dma::system.l2.cpu_side      1030540                       # Cumulative packet size per connected master and slave (bytes)
system.tol2bus.pkt_size_system.cpu3.icache.mem_side::system.l2.cpu_side      9391616                       # Cumulative packet size per connected master and slave (bytes)
system.tol2bus.pkt_size_system.cpu3.dcache.mem_side::system.l2.cpu_side     46051732                       # Cumulative packet size per connected master and slave (bytes)
system.tol2bus.pkt_size_system.cpu3.itb.walker.dma::system.l2.cpu_side        23236                       # Cumulative packet size per connected master and slave (bytes)
system.tol2bus.pkt_size_system.cpu3.dtb.walker.dma::system.l2.cpu_side       935420                       # Cumulative packet size per connected master and slave (bytes)
system.tol2bus.pkt_size_system.cpu4.icache.mem_side::system.l2.cpu_side      9780224                       # Cumulative packet size per connected master and slave (bytes)
system.tol2bus.pkt_size_system.cpu4.dcache.mem_side::system.l2.cpu_side     46765100                       # Cumulative packet size per connected master and slave (bytes)
system.tol2bus.pkt_size_system.cpu4.itb.walker.dma::system.l2.cpu_side        23728                       # Cumulative packet size per connected master and slave (bytes)
system.tol2bus.pkt_size_system.cpu4.dtb.walker.dma::system.l2.cpu_side       923640                       # Cumulative packet size per connected master and slave (bytes)
system.tol2bus.pkt_size_system.cpu5.icache.mem_side::system.l2.cpu_side     10746624                       # Cumulative packet size per connected master and slave (bytes)
system.tol2bus.pkt_size_system.cpu5.dcache.mem_side::system.l2.cpu_side     48341208                       # Cumulative packet size per connected master and slave (bytes)
system.tol2bus.pkt_size_system.cpu5.itb.walker.dma::system.l2.cpu_side        34332                       # Cumulative packet size per connected master and slave (bytes)
system.tol2bus.pkt_size_system.cpu5.dtb.walker.dma::system.l2.cpu_side       947316                       # Cumulative packet size per connected master and slave (bytes)
system.tol2bus.pkt_size_system.cpu6.icache.mem_side::system.l2.cpu_side     18419200                       # Cumulative packet size per connected master and slave (bytes)
system.tol2bus.pkt_size_system.cpu6.dcache.mem_side::system.l2.cpu_side     61261238                       # Cumulative packet size per connected master and slave (bytes)
system.tol2bus.pkt_size_system.cpu6.itb.walker.dma::system.l2.cpu_side        50796                       # Cumulative packet size per connected master and slave (bytes)
system.tol2bus.pkt_size_system.cpu6.dtb.walker.dma::system.l2.cpu_side       962708                       # Cumulative packet size per connected master and slave (bytes)
system.tol2bus.pkt_size_system.cpu7.icache.mem_side::system.l2.cpu_side     11875840                       # Cumulative packet size per connected master and slave (bytes)
system.tol2bus.pkt_size_system.cpu7.dcache.mem_side::system.l2.cpu_side     48725792                       # Cumulative packet size per connected master and slave (bytes)
system.tol2bus.pkt_size_system.cpu7.itb.walker.dma::system.l2.cpu_side        33308                       # Cumulative packet size per connected master and slave (bytes)
system.tol2bus.pkt_size_system.cpu7.dtb.walker.dma::system.l2.cpu_side       929900                       # Cumulative packet size per connected master and slave (bytes)
system.tol2bus.pkt_size::total              527552072                       # Cumulative packet size per connected master and slave (bytes)
system.tol2bus.snoops                         2652336                       # Total snoops (count)
system.tol2bus.snoop_fanout::samples         12825666                       # Request fanout histogram
system.tol2bus.snoop_fanout::mean           47.111489                       # Request fanout histogram
system.tol2bus.snoop_fanout::stdev           0.314736                       # Request fanout histogram
system.tol2bus.snoop_fanout::underflows             0      0.00%      0.00% # Request fanout histogram
system.tol2bus.snoop_fanout::0                      0      0.00%      0.00% # Request fanout histogram
system.tol2bus.snoop_fanout::1                      0      0.00%      0.00% # Request fanout histogram
system.tol2bus.snoop_fanout::2                      0      0.00%      0.00% # Request fanout histogram
system.tol2bus.snoop_fanout::3                      0      0.00%      0.00% # Request fanout histogram
system.tol2bus.snoop_fanout::4                      0      0.00%      0.00% # Request fanout histogram
system.tol2bus.snoop_fanout::5                      0      0.00%      0.00% # Request fanout histogram
system.tol2bus.snoop_fanout::6                      0      0.00%      0.00% # Request fanout histogram
system.tol2bus.snoop_fanout::7                      0      0.00%      0.00% # Request fanout histogram
system.tol2bus.snoop_fanout::8                      0      0.00%      0.00% # Request fanout histogram
system.tol2bus.snoop_fanout::9                      0      0.00%      0.00% # Request fanout histogram
system.tol2bus.snoop_fanout::10                     0      0.00%      0.00% # Request fanout histogram
system.tol2bus.snoop_fanout::11                     0      0.00%      0.00% # Request fanout histogram
system.tol2bus.snoop_fanout::12                     0      0.00%      0.00% # Request fanout histogram
system.tol2bus.snoop_fanout::13                     0      0.00%      0.00% # Request fanout histogram
system.tol2bus.snoop_fanout::14                     0      0.00%      0.00% # Request fanout histogram
system.tol2bus.snoop_fanout::15                     0      0.00%      0.00% # Request fanout histogram
system.tol2bus.snoop_fanout::16                     0      0.00%      0.00% # Request fanout histogram
system.tol2bus.snoop_fanout::17                     0      0.00%      0.00% # Request fanout histogram
system.tol2bus.snoop_fanout::18                     0      0.00%      0.00% # Request fanout histogram
system.tol2bus.snoop_fanout::19                     0      0.00%      0.00% # Request fanout histogram
system.tol2bus.snoop_fanout::20                     0      0.00%      0.00% # Request fanout histogram
system.tol2bus.snoop_fanout::21                     0      0.00%      0.00% # Request fanout histogram
system.tol2bus.snoop_fanout::22                     0      0.00%      0.00% # Request fanout histogram
system.tol2bus.snoop_fanout::23                     0      0.00%      0.00% # Request fanout histogram
system.tol2bus.snoop_fanout::24                     0      0.00%      0.00% # Request fanout histogram
system.tol2bus.snoop_fanout::25                     0      0.00%      0.00% # Request fanout histogram
system.tol2bus.snoop_fanout::26                     0      0.00%      0.00% # Request fanout histogram
system.tol2bus.snoop_fanout::27                     0      0.00%      0.00% # Request fanout histogram
system.tol2bus.snoop_fanout::28                     0      0.00%      0.00% # Request fanout histogram
system.tol2bus.snoop_fanout::29                     0      0.00%      0.00% # Request fanout histogram
system.tol2bus.snoop_fanout::30                     0      0.00%      0.00% # Request fanout histogram
system.tol2bus.snoop_fanout::31                     0      0.00%      0.00% # Request fanout histogram
system.tol2bus.snoop_fanout::32                     0      0.00%      0.00% # Request fanout histogram
system.tol2bus.snoop_fanout::33                     0      0.00%      0.00% # Request fanout histogram
system.tol2bus.snoop_fanout::34                     0      0.00%      0.00% # Request fanout histogram
system.tol2bus.snoop_fanout::35                     0      0.00%      0.00% # Request fanout histogram
system.tol2bus.snoop_fanout::36                     0      0.00%      0.00% # Request fanout histogram
system.tol2bus.snoop_fanout::37                     0      0.00%      0.00% # Request fanout histogram
system.tol2bus.snoop_fanout::38                     0      0.00%      0.00% # Request fanout histogram
system.tol2bus.snoop_fanout::39                     0      0.00%      0.00% # Request fanout histogram
system.tol2bus.snoop_fanout::40                     0      0.00%      0.00% # Request fanout histogram
system.tol2bus.snoop_fanout::41                     0      0.00%      0.00% # Request fanout histogram
system.tol2bus.snoop_fanout::42                     0      0.00%      0.00% # Request fanout histogram
system.tol2bus.snoop_fanout::43                     0      0.00%      0.00% # Request fanout histogram
system.tol2bus.snoop_fanout::44                     0      0.00%      0.00% # Request fanout histogram
system.tol2bus.snoop_fanout::45                     0      0.00%      0.00% # Request fanout histogram
system.tol2bus.snoop_fanout::46                     0      0.00%      0.00% # Request fanout histogram
system.tol2bus.snoop_fanout::47              11395749     88.85%     88.85% # Request fanout histogram
system.tol2bus.snoop_fanout::48               1429917     11.15%    100.00% # Request fanout histogram
system.tol2bus.snoop_fanout::overflows              0      0.00%    100.00% # Request fanout histogram
system.tol2bus.snoop_fanout::min_value             47                       # Request fanout histogram
system.tol2bus.snoop_fanout::max_value             48                       # Request fanout histogram
system.tol2bus.snoop_fanout::total           12825666                       # Request fanout histogram
system.tol2bus.reqLayer0.occupancy         6435908120                       # Layer occupancy (ticks)
system.tol2bus.reqLayer0.utilization              1.7                       # Layer utilization (%)
system.tol2bus.snoopLayer0.occupancy            16500                       # Layer occupancy (ticks)
system.tol2bus.snoopLayer0.utilization            0.0                       # Layer utilization (%)
system.tol2bus.respLayer0.occupancy         212982398                       # Layer occupancy (ticks)
system.tol2bus.respLayer0.utilization             0.1                       # Layer utilization (%)
system.tol2bus.respLayer1.occupancy        1275390526                       # Layer occupancy (ticks)
system.tol2bus.respLayer1.utilization             0.3                       # Layer utilization (%)
system.tol2bus.respLayer2.occupancy          10484895                       # Layer occupancy (ticks)
system.tol2bus.respLayer2.utilization             0.0                       # Layer utilization (%)
system.tol2bus.respLayer3.occupancy         244116014                       # Layer occupancy (ticks)
system.tol2bus.respLayer3.utilization             0.1                       # Layer utilization (%)
system.tol2bus.respLayer6.occupancy         239984197                       # Layer occupancy (ticks)
system.tol2bus.respLayer6.utilization             0.1                       # Layer utilization (%)
system.tol2bus.respLayer7.occupancy        1216842136                       # Layer occupancy (ticks)
system.tol2bus.respLayer7.utilization             0.3                       # Layer utilization (%)
system.tol2bus.respLayer8.occupancy          13335675                       # Layer occupancy (ticks)
system.tol2bus.respLayer8.utilization             0.0                       # Layer utilization (%)
system.tol2bus.respLayer9.occupancy         244466288                       # Layer occupancy (ticks)
system.tol2bus.respLayer9.utilization             0.1                       # Layer utilization (%)
system.tol2bus.respLayer12.occupancy        670209426                       # Layer occupancy (ticks)
system.tol2bus.respLayer12.utilization            0.2                       # Layer utilization (%)
system.tol2bus.respLayer13.occupancy       1465050172                       # Layer occupancy (ticks)
system.tol2bus.respLayer13.utilization            0.4                       # Layer utilization (%)
system.tol2bus.respLayer14.occupancy         18880403                       # Layer occupancy (ticks)
system.tol2bus.respLayer14.utilization            0.0                       # Layer utilization (%)
system.tol2bus.respLayer15.occupancy        282170200                       # Layer occupancy (ticks)
system.tol2bus.respLayer15.utilization            0.1                       # Layer utilization (%)
system.tol2bus.respLayer18.occupancy        222073548                       # Layer occupancy (ticks)
system.tol2bus.respLayer18.utilization            0.1                       # Layer utilization (%)
system.tol2bus.respLayer19.occupancy       1195595242                       # Layer occupancy (ticks)
system.tol2bus.respLayer19.utilization            0.3                       # Layer utilization (%)
system.tol2bus.respLayer20.occupancy          8010412                       # Layer occupancy (ticks)
system.tol2bus.respLayer20.utilization            0.0                       # Layer utilization (%)
system.tol2bus.respLayer21.occupancy        239311270                       # Layer occupancy (ticks)
system.tol2bus.respLayer21.utilization            0.1                       # Layer utilization (%)
system.tol2bus.respLayer24.occupancy        231135701                       # Layer occupancy (ticks)
system.tol2bus.respLayer24.utilization            0.1                       # Layer utilization (%)
system.tol2bus.respLayer25.occupancy       1203735554                       # Layer occupancy (ticks)
system.tol2bus.respLayer25.utilization            0.3                       # Layer utilization (%)
system.tol2bus.respLayer26.occupancy          8247922                       # Layer occupancy (ticks)
system.tol2bus.respLayer26.utilization            0.0                       # Layer utilization (%)
system.tol2bus.respLayer27.occupancy        237973298                       # Layer occupancy (ticks)
system.tol2bus.respLayer27.utilization            0.1                       # Layer utilization (%)
system.tol2bus.respLayer30.occupancy        253943231                       # Layer occupancy (ticks)
system.tol2bus.respLayer30.utilization            0.1                       # Layer utilization (%)
system.tol2bus.respLayer31.occupancy       1229325358                       # Layer occupancy (ticks)
system.tol2bus.respLayer31.utilization            0.3                       # Layer utilization (%)
system.tol2bus.respLayer32.occupancy         10443645                       # Layer occupancy (ticks)
system.tol2bus.respLayer32.utilization            0.0                       # Layer utilization (%)
system.tol2bus.respLayer33.occupancy        241760792                       # Layer occupancy (ticks)
[...]
system.cpu7.dcache.StoreCondFailReq_mshr_miss_latency::switch_cpus7.data      1727501                       # number of StoreCondFailReq MSHR miss cycles
system.cpu7.dcache.StoreCondFailReq_mshr_miss_latency::total      1727501                       # number of StoreCondFailReq MSHR miss cycles
system.cpu7.dcache.demand_mshr_miss_latency::switch_cpus7.data   6700433651                       # number of demand (read+write) MSHR miss cycles
system.cpu7.dcache.demand_mshr_miss_latency::total   6700433651                       # number of demand (read+write) MSHR miss cycles
system.cpu7.dcache.overall_mshr_miss_latency::switch_cpus7.data  25621893531                       # number of overall MSHR miss cycles
system.cpu7.dcache.overall_mshr_miss_latency::total  25621893531                       # number of overall MSHR miss cycles
system.cpu7.dcache.ReadReq_mshr_uncacheable_latency::switch_cpus7.data     17157499                       # number of ReadReq MSHR uncacheable cycles
system.cpu7.dcache.ReadReq_mshr_uncacheable_latency::total     17157499                       # number of ReadReq MSHR uncacheable cycles
system.cpu7.dcache.WriteReq_mshr_uncacheable_latency::switch_cpus7.data     13843996                       # number of WriteReq MSHR uncacheable cycles
system.cpu7.dcache.WriteReq_mshr_uncacheable_latency::total     13843996                       # number of WriteReq MSHR uncacheable cycles
system.cpu7.dcache.overall_mshr_uncacheable_latency::switch_cpus7.data     31001495                       # number of overall MSHR uncacheable cycles
system.cpu7.dcache.overall_mshr_uncacheable_latency::total     31001495                       # number of overall MSHR uncacheable cycles
system.cpu7.dcache.ReadReq_mshr_miss_rate::switch_cpus7.data     0.010687                       # mshr miss rate for ReadReq accesses
system.cpu7.dcache.ReadReq_mshr_miss_rate::total     0.010687                       # mshr miss rate for ReadReq accesses
system.cpu7.dcache.WriteReq_mshr_miss_rate::switch_cpus7.data     0.015288                       # mshr miss rate for WriteReq accesses
system.cpu7.dcache.WriteReq_mshr_miss_rate::total     0.015288                       # mshr miss rate for WriteReq accesses
system.cpu7.dcache.SoftPFReq_mshr_miss_rate::switch_cpus7.data     0.165321                       # mshr miss rate for SoftPFReq accesses
system.cpu7.dcache.SoftPFReq_mshr_miss_rate::total     0.165321                       # mshr miss rate for SoftPFReq accesses
system.cpu7.dcache.LoadLockedReq_mshr_miss_rate::switch_cpus7.data     0.069081                       # mshr miss rate for LoadLockedReq accesses
system.cpu7.dcache.LoadLockedReq_mshr_miss_rate::total     0.069081                       # mshr miss rate for LoadLockedReq accesses
system.cpu7.dcache.StoreCondReq_mshr_miss_rate::switch_cpus7.data     0.161897                       # mshr miss rate for StoreCondReq accesses
system.cpu7.dcache.StoreCondReq_mshr_miss_rate::total     0.161897                       # mshr miss rate for StoreCondReq accesses
system.cpu7.dcache.demand_mshr_miss_rate::switch_cpus7.data     0.011625                       # mshr miss rate for demand accesses
system.cpu7.dcache.demand_mshr_miss_rate::total     0.011625                       # mshr miss rate for demand accesses
system.cpu7.dcache.overall_mshr_miss_rate::switch_cpus7.data     0.025757                       # mshr miss rate for overall accesses
system.cpu7.dcache.overall_mshr_miss_rate::total     0.025757                       # mshr miss rate for overall accesses
system.cpu7.dcache.ReadReq_avg_mshr_miss_latency::switch_cpus7.data 24002.758865                       # average ReadReq mshr miss latency
system.cpu7.dcache.ReadReq_avg_mshr_miss_latency::total 24002.758865                       # average ReadReq mshr miss latency
system.cpu7.dcache.WriteReq_avg_mshr_miss_latency::switch_cpus7.data  8445.188894                       # average WriteReq mshr miss latency
system.cpu7.dcache.WriteReq_avg_mshr_miss_latency::total  8445.188894                       # average WriteReq mshr miss latency
system.cpu7.dcache.SoftPFReq_avg_mshr_miss_latency::switch_cpus7.data 38890.953166                       # average SoftPFReq mshr miss latency
system.cpu7.dcache.SoftPFReq_avg_mshr_miss_latency::total 38890.953166                       # average SoftPFReq mshr miss latency
system.cpu7.dcache.LoadLockedReq_avg_mshr_miss_latency::switch_cpus7.data  8191.848379                       # average LoadLockedReq mshr miss latency
system.cpu7.dcache.LoadLockedReq_avg_mshr_miss_latency::total  8191.848379                       # average LoadLockedReq mshr miss latency
system.cpu7.dcache.StoreCondReq_avg_mshr_miss_latency::switch_cpus7.data  4520.200048                       # average StoreCondReq mshr miss latency
system.cpu7.dcache.StoreCondReq_avg_mshr_miss_latency::total  4520.200048                       # average StoreCondReq mshr miss latency
system.cpu7.dcache.StoreCondFailReq_avg_mshr_miss_latency::switch_cpus7.data          inf                       # average StoreCondFailReq mshr miss latency
system.cpu7.dcache.StoreCondFailReq_avg_mshr_miss_latency::total          inf                       # average StoreCondFailReq mshr miss latency
system.cpu7.dcache.demand_avg_mshr_miss_latency::switch_cpus7.data 19831.630442                       # average overall mshr miss latency
system.cpu7.dcache.demand_avg_mshr_miss_latency::total 19831.630442                       # average overall mshr miss latency
system.cpu7.dcache.overall_avg_mshr_miss_latency::switch_cpus7.data 31079.745474                       # average overall mshr miss latency
system.cpu7.dcache.overall_avg_mshr_miss_latency::total 31079.745474                       # average overall mshr miss latency
system.cpu7.dcache.ReadReq_avg_mshr_uncacheable_latency::switch_cpus7.data          inf                       # average ReadReq mshr uncacheable latency
system.cpu7.dcache.ReadReq_avg_mshr_uncacheable_latency::total          inf                       # average ReadReq mshr uncacheable latency
system.cpu7.dcache.WriteReq_avg_mshr_uncacheable_latency::switch_cpus7.data          inf                       # average WriteReq mshr uncacheable latency
system.cpu7.dcache.WriteReq_avg_mshr_uncacheable_latency::total          inf                       # average WriteReq mshr uncacheable latency
system.cpu7.dcache.overall_avg_mshr_uncacheable_latency::switch_cpus7.data          inf                       # average overall mshr uncacheable latency
system.cpu7.dcache.overall_avg_mshr_uncacheable_latency::total          inf                       # average overall mshr uncacheable latency
system.cpu7.dcache.no_allocate_misses               0                       # Number of misses that were no-allocate
system.iocache.tags.replacements                  571                       # number of replacements
system.iocache.tags.tagsinuse               15.282930                       # Cycle average of tags in use
system.iocache.tags.total_refs                      0                       # Total number of references to valid blocks.
system.iocache.tags.sampled_refs                  587                       # Sample count of references to valid blocks.
system.iocache.tags.avg_refs                        0                       # Average number of references to valid blocks.
system.iocache.tags.warmup_cycle         3212731564000                       # Cycle when the warmup percentage was hit.
system.iocache.tags.occ_blocks::realview.ide    15.282930                       # Average occupied blocks per requestor
system.iocache.tags.occ_percent::realview.ide     0.955183                       # Average percentage of cache occupancy
system.iocache.tags.occ_percent::total       0.955183                       # Average percentage of cache occupancy
system.iocache.tags.occ_task_id_blocks::1023           16                       # Occupied blocks per task id
system.iocache.tags.age_task_id_blocks_1023::3           16                       # Occupied blocks per task id
system.iocache.tags.occ_task_id_percent::1023            1                       # Percentage of cache occupancy per task id
system.iocache.tags.tag_accesses                 5291                       # Number of tag accesses
system.iocache.tags.data_accesses                5291                       # Number of data accesses
system.iocache.WriteInvalidateReq_hits::realview.ide          576                       # number of WriteInvalidateReq hits
system.iocache.WriteInvalidateReq_hits::total          576                       # number of WriteInvalidateReq hits
system.iocache.ReadReq_misses::realview.ide           11                       # number of ReadReq misses
system.iocache.ReadReq_misses::total               11                       # number of ReadReq misses
system.iocache.WriteInvalidateReq_misses::realview.ide            1                       # number of WriteInvalidateReq misses
system.iocache.WriteInvalidateReq_misses::total            1                       # number of WriteInvalidateReq misses
system.iocache.demand_misses::realview.ide           11                       # number of demand (read+write) misses
system.iocache.demand_misses::total                11                       # number of demand (read+write) misses
system.iocache.overall_misses::realview.ide           11                       # number of overall misses
system.iocache.overall_misses::total               11                       # number of overall misses
system.iocache.ReadReq_miss_latency::realview.ide      1204995                       # number of ReadReq miss cycles
system.iocache.ReadReq_miss_latency::total      1204995                       # number of ReadReq miss cycles
system.iocache.demand_miss_latency::realview.ide      1204995                       # number of demand (read+write) miss cycles
system.iocache.demand_miss_latency::total      1204995                       # number of demand (read+write) miss cycles
system.iocache.overall_miss_latency::realview.ide      1204995                       # number of overall miss cycles
system.iocache.overall_miss_latency::total      1204995                       # number of overall miss cycles
system.iocache.ReadReq_accesses::realview.ide           11                       # number of ReadReq accesses(hits+misses)
system.iocache.ReadReq_accesses::total             11                       # number of ReadReq accesses(hits+misses)
system.iocache.WriteInvalidateReq_accesses::realview.ide          577                       # number of WriteInvalidateReq accesses(hits+misses)
system.iocache.WriteInvalidateReq_accesses::total          577                       # number of WriteInvalidateReq accesses(hits+misses)
system.iocache.demand_accesses::realview.ide           11                       # number of demand (read+write) accesses
system.iocache.demand_accesses::total              11                       # number of demand (read+write) accesses
system.iocache.overall_accesses::realview.ide           11                       # number of overall (read+write) accesses
system.iocache.overall_accesses::total             11                       # number of overall (read+write) accesses
system.iocache.ReadReq_miss_rate::realview.ide            1                       # miss rate for ReadReq accesses
system.iocache.ReadReq_miss_rate::total             1                       # miss rate for ReadReq accesses
system.iocache.WriteInvalidateReq_miss_rate::realview.ide     0.001733                       # miss rate for WriteInvalidateReq accesses
system.iocache.WriteInvalidateReq_miss_rate::total     0.001733                       # miss rate for WriteInvalidateReq accesses
system.iocache.demand_miss_rate::realview.ide            1                       # miss rate for demand accesses
system.iocache.demand_miss_rate::total              1                       # miss rate for demand accesses
system.iocache.overall_miss_rate::realview.ide            1                       # miss rate for overall accesses
system.iocache.overall_miss_rate::total             1                       # miss rate for overall accesses
system.iocache.ReadReq_avg_miss_latency::realview.ide       109545                       # average ReadReq miss latency
system.iocache.ReadReq_avg_miss_latency::total       109545                       # average ReadReq miss latency
system.iocache.demand_avg_miss_latency::realview.ide       109545                       # average overall miss latency
system.iocache.demand_avg_miss_latency::total       109545                       # average overall miss latency
system.iocache.overall_avg_miss_latency::realview.ide       109545                       # average overall miss latency
system.iocache.overall_avg_miss_latency::total       109545                       # average overall miss latency
system.iocache.blocked_cycles::no_mshrs             0                       # number of cycles access was blocked
system.iocache.blocked_cycles::no_targets            0                       # number of cycles access was blocked
system.iocache.blocked::no_mshrs                    0                       # number of cycles access was blocked
system.iocache.blocked::no_targets                  0                       # number of cycles access was blocked
system.iocache.avg_blocked_cycles::no_mshrs          nan                       # average number of cycles each access was blocked
system.iocache.avg_blocked_cycles::no_targets          nan                       # average number of cycles each access was blocked
system.iocache.fast_writes                        576                       # number of fast writes performed
system.iocache.cache_copies                         0                       # number of cache copies performed
system.iocache.ReadReq_mshr_misses::realview.ide           11                       # number of ReadReq MSHR misses
system.iocache.ReadReq_mshr_misses::total           11                       # number of ReadReq MSHR misses
system.iocache.WriteInvalidateReq_mshr_misses::realview.ide          576                       # number of WriteInvalidateReq MSHR misses
system.iocache.WriteInvalidateReq_mshr_misses::total          576                       # number of WriteInvalidateReq MSHR misses
system.iocache.demand_mshr_misses::realview.ide           11                       # number of demand (read+write) MSHR misses
system.iocache.demand_mshr_misses::total           11                       # number of demand (read+write) MSHR misses
system.iocache.overall_mshr_misses::realview.ide           11                       # number of overall MSHR misses
system.iocache.overall_mshr_misses::total           11                       # number of overall MSHR misses
system.iocache.ReadReq_mshr_miss_latency::realview.ide       632995                       # number of ReadReq MSHR miss cycles
system.iocache.ReadReq_mshr_miss_latency::total       632995                       # number of ReadReq MSHR miss cycles
system.iocache.WriteInvalidateReq_mshr_miss_latency::realview.ide     44822978                       # number of WriteInvalidateReq MSHR miss cycles
system.iocache.WriteInvalidateReq_mshr_miss_latency::total     44822978                       # number of WriteInvalidateReq MSHR miss cycles
system.iocache.demand_mshr_miss_latency::realview.ide       632995                       # number of demand (read+write) MSHR miss cycles
system.iocache.demand_mshr_miss_latency::total       632995                       # number of demand (read+write) MSHR miss cycles
system.iocache.overall_mshr_miss_latency::realview.ide       632995                       # number of overall MSHR miss cycles
system.iocache.overall_mshr_miss_latency::total       632995                       # number of overall MSHR miss cycles
system.iocache.ReadReq_mshr_miss_rate::realview.ide            1                       # mshr miss rate for ReadReq accesses
system.iocache.ReadReq_mshr_miss_rate::total            1                       # mshr miss rate for ReadReq accesses
system.iocache.WriteInvalidateReq_mshr_miss_rate::realview.ide     0.998267                       # mshr miss rate for WriteInvalidateReq accesses
system.iocache.WriteInvalidateReq_mshr_miss_rate::total     0.998267                       # mshr miss rate for WriteInvalidateReq accesses
system.iocache.demand_mshr_miss_rate::realview.ide            1                       # mshr miss rate for demand accesses
system.iocache.demand_mshr_miss_rate::total            1                       # mshr miss rate for demand accesses
system.iocache.overall_mshr_miss_rate::realview.ide            1                       # mshr miss rate for overall accesses
system.iocache.overall_mshr_miss_rate::total            1                       # mshr miss rate for overall accesses
system.iocache.ReadReq_avg_mshr_miss_latency::realview.ide        57545                       # average ReadReq mshr miss latency
system.iocache.ReadReq_avg_mshr_miss_latency::total        57545                       # average ReadReq mshr miss latency
system.iocache.WriteInvalidateReq_avg_mshr_miss_latency::realview.ide 77817.670139                       # average WriteInvalidateReq mshr miss latency
system.iocache.WriteInvalidateReq_avg_mshr_miss_latency::total 77817.670139                       # average WriteInvalidateReq mshr miss latency
system.iocache.demand_avg_mshr_miss_latency::realview.ide        57545                       # average overall mshr miss latency
system.iocache.demand_avg_mshr_miss_latency::total        57545                       # average overall mshr miss latency
system.iocache.overall_avg_mshr_miss_latency::realview.ide        57545                       # average overall mshr miss latency
system.iocache.overall_avg_mshr_miss_latency::total        57545                       # average overall mshr miss latency
system.iocache.no_allocate_misses                   0                       # Number of misses that were no-allocate
system.switch_cpus0.kern.inst.arm                   0                       # number of arm instructions executed
system.switch_cpus0.kern.inst.quiesce               0                       # number of quiesce instructions executed
system.switch_cpus1.kern.inst.arm                   0                       # number of arm instructions executed
system.switch_cpus1.kern.inst.quiesce               0                       # number of quiesce instructions executed
system.switch_cpus2.kern.inst.arm                   0                       # number of arm instructions executed
system.switch_cpus2.kern.inst.quiesce               0                       # number of quiesce instructions executed
system.switch_cpus3.kern.inst.arm                   0                       # number of arm instructions executed
system.switch_cpus3.kern.inst.quiesce               0                       # number of quiesce instructions executed
system.switch_cpus4.kern.inst.arm                   0                       # number of arm instructions executed
system.switch_cpus4.kern.inst.quiesce               0                       # number of quiesce instructions executed
system.switch_cpus5.kern.inst.arm                   0                       # number of arm instructions executed
system.switch_cpus5.kern.inst.quiesce               0                       # number of quiesce instructions executed
system.switch_cpus6.kern.inst.arm                   0                       # number of arm instructions executed
system.switch_cpus6.kern.inst.quiesce               0                       # number of quiesce instructions executed
system.switch_cpus7.kern.inst.arm                   0                       # number of arm instructions executed
system.switch_cpus7.kern.inst.quiesce               0                       # number of quiesce instructions executed

---------- End Simulation Statistics   ----------
