
---------- Begin Simulation Statistics ----------
sim_seconds                                  4.794307                       # Number of seconds simulated
sim_ticks                                4794306572000                       # Number of ticks simulated
final_tick                               4794306572000                       # Number of ticks from beginning of simulation (restored from checkpoints and never reset)
sim_freq                                 1000000000000                       # Frequency of simulated ticks
host_inst_rate                                1590105                       # Simulator instruction rate (inst/s)
host_op_rate                                  4083019                       # Simulator op (including micro ops) rate (op/s)
host_tick_rate                            29646704091                       # Simulator tick rate (ticks/s)
host_mem_usage                                1267864                       # Number of bytes of host memory used
host_seconds                                   161.71                       # Real time elapsed on the host
sim_insts                                   257143178                       # Number of instructions simulated
sim_ops                                     660283930                       # Number of ops (including micro ops) simulated
system.voltage_domain.voltage                       1                       # Voltage in Volts
system.clk_domain.clock                          1000                       # Clock period in ticks
system.mem_ctrls.bytes_read::pc.south_bridge.ide        35648                       # Number of bytes read from this memory
system.mem_ctrls.bytes_read::cpu0.dtb.walker         1920                       # Number of bytes read from this memory
system.mem_ctrls.bytes_read::cpu0.itb.walker          256                       # Number of bytes read from this memory
system.mem_ctrls.bytes_read::cpu0.inst         716032                       # Number of bytes read from this memory
system.mem_ctrls.bytes_read::cpu0.data       32193600                       # Number of bytes read from this memory
system.mem_ctrls.bytes_read::cpu1.dtb.walker          640                       # Number of bytes read from this memory
system.mem_ctrls.bytes_read::cpu1.itb.walker           64                       # Number of bytes read from this memory
system.mem_ctrls.bytes_read::cpu1.inst          92864                       # Number of bytes read from this memory
system.mem_ctrls.bytes_read::cpu1.data        3179904                       # Number of bytes read from this memory
system.mem_ctrls.bytes_read::cpu2.dtb.walker           64                       # Number of bytes read from this memory
system.mem_ctrls.bytes_read::cpu2.inst         156608                       # Number of bytes read from this memory
system.mem_ctrls.bytes_read::cpu2.data        1916288                       # Number of bytes read from this memory
system.mem_ctrls.bytes_read::cpu3.dtb.walker          320                       # Number of bytes read from this memory
system.mem_ctrls.bytes_read::cpu3.inst         168448                       # Number of bytes read from this memory
system.mem_ctrls.bytes_read::cpu3.data         866496                       # Number of bytes read from this memory
system.mem_ctrls.bytes_read::total           39329152                       # Number of bytes read from this memory
system.mem_ctrls.bytes_inst_read::cpu0.inst       716032                       # Number of instructions bytes read from this memory
system.mem_ctrls.bytes_inst_read::cpu1.inst        92864                       # Number of instructions bytes read from this memory
system.mem_ctrls.bytes_inst_read::cpu2.inst       156608                       # Number of instructions bytes read from this memory
system.mem_ctrls.bytes_inst_read::cpu3.inst       168448                       # Number of instructions bytes read from this memory
system.mem_ctrls.bytes_inst_read::total       1133952                       # Number of instructions bytes read from this memory
system.mem_ctrls.bytes_written::writebacks     35059968                       # Number of bytes written to this memory
system.mem_ctrls.bytes_written::pc.south_bridge.ide      2665472                       # Number of bytes written to this memory
system.mem_ctrls.bytes_written::total        37725440                       # Number of bytes written to this memory
system.mem_ctrls.num_reads::pc.south_bridge.ide          557                       # Number of read requests responded to by this memory
system.mem_ctrls.num_reads::cpu0.dtb.walker           30                       # Number of read requests responded to by this memory
system.mem_ctrls.num_reads::cpu0.itb.walker            4                       # Number of read requests responded to by this memory
system.mem_ctrls.num_reads::cpu0.inst           11188                       # Number of read requests responded to by this memory
system.mem_ctrls.num_reads::cpu0.data          503025                       # Number of read requests responded to by this memory
system.mem_ctrls.num_reads::cpu1.dtb.walker           10                       # Number of read requests responded to by this memory
system.mem_ctrls.num_reads::cpu1.itb.walker            1                       # Number of read requests responded to by this memory
system.mem_ctrls.num_reads::cpu1.inst            1451                       # Number of read requests responded to by this memory
system.mem_ctrls.num_reads::cpu1.data           49686                       # Number of read requests responded to by this memory
system.mem_ctrls.num_reads::cpu2.dtb.walker            1                       # Number of read requests responded to by this memory
system.mem_ctrls.num_reads::cpu2.inst            2447                       # Number of read requests responded to by this memory
system.mem_ctrls.num_reads::cpu2.data           29942                       # Number of read requests responded to by this memory
system.mem_ctrls.num_reads::cpu3.dtb.walker            5                       # Number of read requests responded to by this memory
system.mem_ctrls.num_reads::cpu3.inst            2632                       # Number of read requests responded to by this memory
system.mem_ctrls.num_reads::cpu3.data           13539                       # Number of read requests responded to by this memory
system.mem_ctrls.num_reads::total              614518                       # Number of read requests responded to by this memory
system.mem_ctrls.num_writes::writebacks        547812                       # Number of write requests responded to by this memory
system.mem_ctrls.num_writes::pc.south_bridge.ide        41648                       # Number of write requests responded to by this memory
system.mem_ctrls.num_writes::total             589460                       # Number of write requests responded to by this memory
system.mem_ctrls.bw_read::pc.south_bridge.ide         7435                       # Total read bandwidth from this memory (bytes/s)
system.mem_ctrls.bw_read::cpu0.dtb.walker          400                       # Total read bandwidth from this memory (bytes/s)
system.mem_ctrls.bw_read::cpu0.itb.walker           53                       # Total read bandwidth from this memory (bytes/s)
system.mem_ctrls.bw_read::cpu0.inst            149350                       # Total read bandwidth from this memory (bytes/s)
system.mem_ctrls.bw_read::cpu0.data           6714965                       # Total read bandwidth from this memory (bytes/s)
system.mem_ctrls.bw_read::cpu1.dtb.walker          133                       # Total read bandwidth from this memory (bytes/s)
system.mem_ctrls.bw_read::cpu1.itb.walker           13                       # Total read bandwidth from this memory (bytes/s)
system.mem_ctrls.bw_read::cpu1.inst             19370                       # Total read bandwidth from this memory (bytes/s)
system.mem_ctrls.bw_read::cpu1.data            663267                       # Total read bandwidth from this memory (bytes/s)
system.mem_ctrls.bw_read::cpu2.dtb.walker           13                       # Total read bandwidth from this memory (bytes/s)
system.mem_ctrls.bw_read::cpu2.inst             32665                       # Total read bandwidth from this memory (bytes/s)
system.mem_ctrls.bw_read::cpu2.data            399701                       # Total read bandwidth from this memory (bytes/s)
system.mem_ctrls.bw_read::cpu3.dtb.walker           67                       # Total read bandwidth from this memory (bytes/s)
system.mem_ctrls.bw_read::cpu3.inst             35135                       # Total read bandwidth from this memory (bytes/s)
system.mem_ctrls.bw_read::cpu3.data            180734                       # Total read bandwidth from this memory (bytes/s)
system.mem_ctrls.bw_read::total               8203304                       # Total read bandwidth from this memory (bytes/s)
system.mem_ctrls.bw_inst_read::cpu0.inst       149350                       # Instruction read bandwidth from this memory (bytes/s)
system.mem_ctrls.bw_inst_read::cpu1.inst        19370                       # Instruction read bandwidth from this memory (bytes/s)
system.mem_ctrls.bw_inst_read::cpu2.inst        32665                       # Instruction read bandwidth from this memory (bytes/s)
system.mem_ctrls.bw_inst_read::cpu3.inst        35135                       # Instruction read bandwidth from this memory (bytes/s)
system.mem_ctrls.bw_inst_read::total           236521                       # Instruction read bandwidth from this memory (bytes/s)
system.mem_ctrls.bw_write::writebacks         7312834                       # Write bandwidth from this memory (bytes/s)
system.mem_ctrls.bw_write::pc.south_bridge.ide       555966                       # Write bandwidth from this memory (bytes/s)
system.mem_ctrls.bw_write::total              7868800                       # Write bandwidth from this memory (bytes/s)
system.mem_ctrls.bw_total::writebacks         7312834                       # Total bandwidth to/from this memory (bytes/s)
system.mem_ctrls.bw_total::pc.south_bridge.ide       563402                       # Total bandwidth to/from this memory (bytes/s)
system.mem_ctrls.bw_total::cpu0.dtb.walker          400                       # Total bandwidth to/from this memory (bytes/s)
system.mem_ctrls.bw_total::cpu0.itb.walker           53                       # Total bandwidth to/from this memory (bytes/s)
system.mem_ctrls.bw_total::cpu0.inst           149350                       # Total bandwidth to/from this memory (bytes/s)
system.mem_ctrls.bw_total::cpu0.data          6714965                       # Total bandwidth to/from this memory (bytes/s)
system.mem_ctrls.bw_total::cpu1.dtb.walker          133                       # Total bandwidth to/from this memory (bytes/s)
system.mem_ctrls.bw_total::cpu1.itb.walker           13                       # Total bandwidth to/from this memory (bytes/s)
system.mem_ctrls.bw_total::cpu1.inst            19370                       # Total bandwidth to/from this memory (bytes/s)
system.mem_ctrls.bw_total::cpu1.data           663267                       # Total bandwidth to/from this memory (bytes/s)
system.mem_ctrls.bw_total::cpu2.dtb.walker           13                       # Total bandwidth to/from this memory (bytes/s)
system.mem_ctrls.bw_total::cpu2.inst            32665                       # Total bandwidth to/from this memory (bytes/s)
system.mem_ctrls.bw_total::cpu2.data           399701                       # Total bandwidth to/from this memory (bytes/s)
system.mem_ctrls.bw_total::cpu3.dtb.walker           67                       # Total bandwidth to/from this memory (bytes/s)
system.mem_ctrls.bw_total::cpu3.inst            35135                       # Total bandwidth to/from this memory (bytes/s)
system.mem_ctrls.bw_total::cpu3.data           180734                       # Total bandwidth to/from this memory (bytes/s)
system.mem_ctrls.bw_total::total             16072104                       # Total bandwidth to/from this memory (bytes/s)
system.mem_ctrls.readReqs                           0                       # Number of read requests accepted
system.mem_ctrls.writeReqs                          0                       # Number of write requests accepted
system.mem_ctrls.readBursts                         0                       # Number of DRAM read bursts, including those serviced by the write queue
system.mem_ctrls.writeBursts                        0                       # Number of DRAM write bursts, including those merged in the write queue
system.mem_ctrls.bytesReadDRAM                      0                       # Total number of bytes read from DRAM
system.mem_ctrls.bytesReadWrQ                       0                       # Total number of bytes read from write queue
system.mem_ctrls.bytesWritten                       0                       # Total number of bytes written to DRAM
system.mem_ctrls.bytesReadSys                       0                       # Total read bytes from the system interface side
system.mem_ctrls.bytesWrittenSys                    0                       # Total written bytes from the system interface side
system.mem_ctrls.servicedByWrQ                      0                       # Number of DRAM read bursts serviced by the write queue
system.mem_ctrls.mergedWrBursts                     0                       # Number of DRAM write bursts merged with an existing one
system.mem_ctrls.neitherReadNorWriteReqs            0                       # Number of requests that are neither read nor write
system.mem_ctrls.perBankRdBursts::0                 0                       # Per bank write bursts
system.mem_ctrls.perBankRdBursts::1                 0                       # Per bank write bursts
system.mem_ctrls.perBankRdBursts::2                 0                       # Per bank write bursts
system.mem_ctrls.perBankRdBursts::3                 0                       # Per bank write bursts
system.mem_ctrls.perBankRdBursts::4                 0                       # Per bank write bursts
system.mem_ctrls.perBankRdBursts::5                 0                       # Per bank write bursts
system.mem_ctrls.perBankRdBursts::6                 0                       # Per bank write bursts
system.mem_ctrls.perBankRdBursts::7                 0                       # Per bank write bursts
system.mem_ctrls.perBankRdBursts::8                 0                       # Per bank write bursts
system.mem_ctrls.perBankRdBursts::9                 0                       # Per bank write bursts
system.mem_ctrls.perBankRdBursts::10                0                       # Per bank write bursts
system.mem_ctrls.perBankRdBursts::11                0                       # Per bank write bursts
system.mem_ctrls.perBankRdBursts::12                0                       # Per bank write bursts
system.mem_ctrls.perBankRdBursts::13                0                       # Per bank write bursts
system.mem_ctrls.perBankRdBursts::14                0                       # Per bank write bursts
system.mem_ctrls.perBankRdBursts::15                0                       # Per bank write bursts
system.mem_ctrls.perBankWrBursts::0                 0                       # Per bank write bursts
system.mem_ctrls.perBankWrBursts::1                 0                       # Per bank write bursts
system.mem_ctrls.perBankWrBursts::2                 0                       # Per bank write bursts
system.mem_ctrls.perBankWrBursts::3                 0                       # Per bank write bursts
system.mem_ctrls.perBankWrBursts::4                 0                       # Per bank write bursts
system.mem_ctrls.perBankWrBursts::5                 0                       # Per bank write bursts
system.mem_ctrls.perBankWrBursts::6                 0                       # Per bank write bursts
system.mem_ctrls.perBankWrBursts::7                 0                       # Per bank write bursts
system.mem_ctrls.perBankWrBursts::8                 0                       # Per bank write bursts
system.mem_ctrls.perBankWrBursts::9                 0                       # Per bank write bursts
system.mem_ctrls.perBankWrBursts::10                0                       # Per bank write bursts
system.mem_ctrls.perBankWrBursts::11                0                       # Per bank write bursts
system.mem_ctrls.perBankWrBursts::12                0                       # Per bank write bursts
system.mem_ctrls.perBankWrBursts::13                0                       # Per bank write bursts
system.mem_ctrls.perBankWrBursts::14                0                       # Per bank write bursts
system.mem_ctrls.perBankWrBursts::15                0                       # Per bank write bursts
system.mem_ctrls.numRdRetry                         0                       # Number of times read queue was full causing retry
system.mem_ctrls.numWrRetry                         0                       # Number of times write queue was full causing retry
system.mem_ctrls.totGap                             0                       # Total gap between requests
system.mem_ctrls.readPktSize::0                     0                       # Read request sizes (log2)
system.mem_ctrls.readPktSize::1                     0                       # Read request sizes (log2)
system.mem_ctrls.readPktSize::2                     0                       # Read request sizes (log2)
system.mem_ctrls.readPktSize::3                     0                       # Read request sizes (log2)
system.mem_ctrls.readPktSize::4                     0                       # Read request sizes (log2)
system.mem_ctrls.readPktSize::5                     0                       # Read request sizes (log2)
system.mem_ctrls.readPktSize::6                     0                       # Read request sizes (log2)
system.mem_ctrls.writePktSize::0                    0                       # Write request sizes (log2)
system.mem_ctrls.writePktSize::1                    0                       # Write request sizes (log2)
system.mem_ctrls.writePktSize::2                    0                       # Write request sizes (log2)
system.mem_ctrls.writePktSize::3                    0                       # Write request sizes (log2)
system.mem_ctrls.writePktSize::4                    0                       # Write request sizes (log2)
system.mem_ctrls.writePktSize::5                    0                       # Write request sizes (log2)
system.mem_ctrls.writePktSize::6                    0                       # Write request sizes (log2)
system.mem_ctrls.rdQLenPdf::0                       0                       # What read queue length does an incoming req see
system.mem_ctrls.rdQLenPdf::1                       0                       # What read queue length does an incoming req see
system.mem_ctrls.rdQLenPdf::2                       0                       # What read queue length does an incoming req see
system.mem_ctrls.rdQLenPdf::3                       0                       # What read queue length does an incoming req see
system.mem_ctrls.rdQLenPdf::4                       0                       # What read queue length does an incoming req see
system.mem_ctrls.rdQLenPdf::5                       0                       # What read queue length does an incoming req see
system.mem_ctrls.rdQLenPdf::6                       0                       # What read queue length does an incoming req see
system.mem_ctrls.rdQLenPdf::7                       0                       # What read queue length does an incoming req see
system.mem_ctrls.rdQLenPdf::8                       0                       # What read queue length does an incoming req see
system.mem_ctrls.rdQLenPdf::9                       0                       # What read queue length does an incoming req see
system.mem_ctrls.rdQLenPdf::10                      0                       # What read queue length does an incoming req see
system.mem_ctrls.rdQLenPdf::11                      0                       # What read queue length does an incoming req see
system.mem_ctrls.rdQLenPdf::12                      0                       # What read queue length does an incoming req see
system.mem_ctrls.rdQLenPdf::13                      0                       # What read queue length does an incoming req see
system.mem_ctrls.rdQLenPdf::14                      0                       # What read queue length does an incoming req see
system.mem_ctrls.rdQLenPdf::15                      0                       # What read queue length does an incoming req see
system.mem_ctrls.rdQLenPdf::16                      0                       # What read queue length does an incoming req see
system.mem_ctrls.rdQLenPdf::17                      0                       # What read queue length does an incoming req see
system.mem_ctrls.rdQLenPdf::18                      0                       # What read queue length does an incoming req see
system.mem_ctrls.rdQLenPdf::19                      0                       # What read queue length does an incoming req see
system.mem_ctrls.rdQLenPdf::20                      0                       # What read queue length does an incoming req see
system.mem_ctrls.rdQLenPdf::21                      0                       # What read queue length does an incoming req see
system.mem_ctrls.rdQLenPdf::22                      0                       # What read queue length does an incoming req see
system.mem_ctrls.rdQLenPdf::23                      0                       # What read queue length does an incoming req see
system.mem_ctrls.rdQLenPdf::24                      0                       # What read queue length does an incoming req see
system.mem_ctrls.rdQLenPdf::25                      0                       # What read queue length does an incoming req see
system.mem_ctrls.rdQLenPdf::26                      0                       # What read queue length does an incoming req see
system.mem_ctrls.rdQLenPdf::27                      0                       # What read queue length does an incoming req see
system.mem_ctrls.rdQLenPdf::28                      0                       # What read queue length does an incoming req see
system.mem_ctrls.rdQLenPdf::29                      0                       # What read queue length does an incoming req see
system.mem_ctrls.rdQLenPdf::30                      0                       # What read queue length does an incoming req see
system.mem_ctrls.rdQLenPdf::31                      0                       # What read queue length does an incoming req see
system.mem_ctrls.wrQLenPdf::0                       0                       # What write queue length does an incoming req see
system.mem_ctrls.wrQLenPdf::1                       0                       # What write queue length does an incoming req see
system.mem_ctrls.wrQLenPdf::2                       0                       # What write queue length does an incoming req see
system.mem_ctrls.wrQLenPdf::3                       0                       # What write queue length does an incoming req see
system.mem_ctrls.wrQLenPdf::4                       0                       # What write queue length does an incoming req see
system.mem_ctrls.wrQLenPdf::5                       0                       # What write queue length does an incoming req see
system.mem_ctrls.wrQLenPdf::6                       0                       # What write queue length does an incoming req see
system.mem_ctrls.wrQLenPdf::7                       0                       # What write queue length does an incoming req see
system.mem_ctrls.wrQLenPdf::8                       0                       # What write queue length does an incoming req see
system.mem_ctrls.wrQLenPdf::9                       0                       # What write queue length does an incoming req see
system.mem_ctrls.wrQLenPdf::10                      0                       # What write queue length does an incoming req see
system.mem_ctrls.wrQLenPdf::11                      0                       # What write queue length does an incoming req see
system.mem_ctrls.wrQLenPdf::12                      0                       # What write queue length does an incoming req see
system.mem_ctrls.wrQLenPdf::13                      0                       # What write queue length does an incoming req see
system.mem_ctrls.wrQLenPdf::14                      0                       # What write queue length does an incoming req see
system.mem_ctrls.wrQLenPdf::15                      0                       # What write queue length does an incoming req see
system.mem_ctrls.wrQLenPdf::16                      0                       # What write queue length does an incoming req see
system.mem_ctrls.wrQLenPdf::17                      0                       # What write queue length does an incoming req see
system.mem_ctrls.wrQLenPdf::18                      0                       # What write queue length does an incoming req see
system.mem_ctrls.wrQLenPdf::19                      0                       # What write queue length does an incoming req see
system.mem_ctrls.wrQLenPdf::20                      0                       # What write queue length does an incoming req see
system.mem_ctrls.wrQLenPdf::21                      0                       # What write queue length does an incoming req see
system.mem_ctrls.wrQLenPdf::22                      0                       # What write queue length does an incoming req see
system.mem_ctrls.wrQLenPdf::23                      0                       # What write queue length does an incoming req see
system.mem_ctrls.wrQLenPdf::24                      0                       # What write queue length does an incoming req see
system.mem_ctrls.wrQLenPdf::25                      0                       # What write queue length does an incoming req see
system.mem_ctrls.wrQLenPdf::26                      0                       # What write queue length does an incoming req see
system.mem_ctrls.wrQLenPdf::27                      0                       # What write queue length does an incoming req see
system.mem_ctrls.wrQLenPdf::28                      0                       # What write queue length does an incoming req see
system.mem_ctrls.wrQLenPdf::29                      0                       # What write queue length does an incoming req see
system.mem_ctrls.wrQLenPdf::30                      0                       # What write queue length does an incoming req see
system.mem_ctrls.wrQLenPdf::31                      0                       # What write queue length does an incoming req see
system.mem_ctrls.wrQLenPdf::32                      0                       # What write queue length does an incoming req see
system.mem_ctrls.wrQLenPdf::33                      0                       # What write queue length does an incoming req see
system.mem_ctrls.wrQLenPdf::34                      0                       # What write queue length does an incoming req see
system.mem_ctrls.wrQLenPdf::35                      0                       # What write queue length does an incoming req see
system.mem_ctrls.wrQLenPdf::36                      0                       # What write queue length does an incoming req see
system.mem_ctrls.wrQLenPdf::37                      0                       # What write queue length does an incoming req see
system.mem_ctrls.wrQLenPdf::38                      0                       # What write queue length does an incoming req see
system.mem_ctrls.wrQLenPdf::39                      0                       # What write queue length does an incoming req see
system.mem_ctrls.wrQLenPdf::40                      0                       # What write queue length does an incoming req see
system.mem_ctrls.wrQLenPdf::41                      0                       # What write queue length does an incoming req see
system.mem_ctrls.wrQLenPdf::42                      0                       # What write queue length does an incoming req see
system.mem_ctrls.wrQLenPdf::43                      0                       # What write queue length does an incoming req see
system.mem_ctrls.wrQLenPdf::44                      0                       # What write queue length does an incoming req see
system.mem_ctrls.wrQLenPdf::45                      0                       # What write queue length does an incoming req see
system.mem_ctrls.wrQLenPdf::46                      0                       # What write queue length does an incoming req see
system.mem_ctrls.wrQLenPdf::47                      0                       # What write queue length does an incoming req see
system.mem_ctrls.wrQLenPdf::48                      0                       # What write queue length does an incoming req see
system.mem_ctrls.wrQLenPdf::49                      0                       # What write queue length does an incoming req see
system.mem_ctrls.wrQLenPdf::50                      0                       # What write queue length does an incoming req see
system.mem_ctrls.wrQLenPdf::51                      0                       # What write queue length does an incoming req see
system.mem_ctrls.wrQLenPdf::52                      0                       # What write queue length does an incoming req see
system.mem_ctrls.wrQLenPdf::53                      0                       # What write queue length does an incoming req see
system.mem_ctrls.wrQLenPdf::54                      0                       # What write queue length does an incoming req see
system.mem_ctrls.wrQLenPdf::55                      0                       # What write queue length does an incoming req see
system.mem_ctrls.wrQLenPdf::56                      0                       # What write queue length does an incoming req see
system.mem_ctrls.wrQLenPdf::57                      0                       # What write queue length does an incoming req see
system.mem_ctrls.wrQLenPdf::58                      0                       # What write queue length does an incoming req see
system.mem_ctrls.wrQLenPdf::59                      0                       # What write queue length does an incoming req see
system.mem_ctrls.wrQLenPdf::60                      0                       # What write queue length does an incoming req see
system.mem_ctrls.wrQLenPdf::61                      0                       # What write queue length does an incoming req see
system.mem_ctrls.wrQLenPdf::62                      0                       # What write queue length does an incoming req see
system.mem_ctrls.wrQLenPdf::63                      0                       # What write queue length does an incoming req see
system.mem_ctrls.totQLat                            0                       # Total ticks spent queuing
system.mem_ctrls.totMemAccLat                       0                       # Total ticks spent from burst creation until serviced by the DRAM
system.mem_ctrls.totBusLat                          0                       # Total ticks spent in databus transfers
system.mem_ctrls.avgQLat                          nan                       # Average queueing delay per DRAM burst
system.mem_ctrls.avgBusLat                        nan                       # Average bus latency per DRAM burst
system.mem_ctrls.avgMemAccLat                     nan                       # Average memory access latency per DRAM burst
system.mem_ctrls.avgRdBW                         0.00                       # Average DRAM read bandwidth in MiByte/s
system.mem_ctrls.avgWrBW                         0.00                       # Average achieved write bandwidth in MiByte/s
system.mem_ctrls.avgRdBWSys                      0.00                       # Average system read bandwidth in MiByte/s
system.mem_ctrls.avgWrBWSys                      0.00                       # Average system write bandwidth in MiByte/s
system.mem_ctrls.peakBW                      12800.00                       # Theoretical peak bandwidth in MiByte/s
system.mem_ctrls.busUtil                         0.00                       # Data bus utilization in percentage
system.mem_ctrls.busUtilRead                     0.00                       # Data bus utilization in percentage for reads
system.mem_ctrls.busUtilWrite                    0.00                       # Data bus utilization in percentage for writes
system.mem_ctrls.avgRdQLen                       0.00                       # Average read queue length when enqueuing
system.mem_ctrls.avgWrQLen                       0.00                       # Average write queue length when enqueuing
system.mem_ctrls.readRowHits                        0                       # Number of row buffer hits during reads
system.mem_ctrls.writeRowHits                       0                       # Number of row buffer hits during writes
system.mem_ctrls.readRowHitRate                   nan                       # Row buffer hit rate for reads
system.mem_ctrls.writeRowHitRate                  nan                       # Row buffer hit rate for writes
system.mem_ctrls.avgGap                           nan                       # Average gap between requests
system.mem_ctrls.pageHitRate                      nan                       # Row buffer hit rate, read and write combined
system.mem_ctrls.memoryStateTime::IDLE   4634213435000                       # Time in different power states
system.mem_ctrls.memoryStateTime::REF    160092400000                       # Time in different power states
system.mem_ctrls.memoryStateTime::PRE_PDN            0                       # Time in different power states
system.mem_ctrls.memoryStateTime::ACT               0                       # Time in different power states
system.mem_ctrls.memoryStateTime::ACT_PDN            0                       # Time in different power states
system.mem_ctrls.actEnergy::0                       0                       # Energy for activate commands per rank (pJ)
system.mem_ctrls.actEnergy::1                       0                       # Energy for activate commands per rank (pJ)
system.mem_ctrls.preEnergy::0                       0                       # Energy for precharge commands per rank (pJ)
system.mem_ctrls.preEnergy::1                       0                       # Energy for precharge commands per rank (pJ)
system.mem_ctrls.readEnergy::0                      0                       # Energy for read commands per rank (pJ)
system.mem_ctrls.readEnergy::1                      0                       # Energy for read commands per rank (pJ)
system.mem_ctrls.writeEnergy::0                     0                       # Energy for write commands per rank (pJ)
system.mem_ctrls.writeEnergy::1                     0                       # Energy for write commands per rank (pJ)
system.mem_ctrls.refreshEnergy::0        313140734400                       # Energy for refresh commands per rank (pJ)
system.mem_ctrls.refreshEnergy::1        313140734400                       # Energy for refresh commands per rank (pJ)
system.mem_ctrls.actBackEnergy::0        103712166900                       # Energy for active background per rank (pJ)
system.mem_ctrls.actBackEnergy::1        103712166900                       # Energy for active background per rank (pJ)
system.mem_ctrls.preBackEnergy::0        2785607907750                       # Energy for precharge background per rank (pJ)
system.mem_ctrls.preBackEnergy::1        2785607907750                       # Energy for precharge background per rank (pJ)
system.mem_ctrls.totalEnergy::0          3202460809050                       # Total energy per rank (pJ)
system.mem_ctrls.totalEnergy::1          3202460809050                       # Total energy per rank (pJ)
system.mem_ctrls.averagePower::0           667.971742                       # Core power per rank (mW)
system.mem_ctrls.averagePower::1           667.971742                       # Core power per rank (mW)
system.cpu_voltage_domain.voltage                   1                       # Voltage in Volts
system.cpu_clk_domain.clock                       500                       # Clock period in ticks
system.tol2bus.trans_dist::ReadReq            5435529                       # Transaction distribution
system.tol2bus.trans_dist::ReadResp           5435529                       # Transaction distribution
system.tol2bus.trans_dist::WriteReq             28985                       # Transaction distribution
system.tol2bus.trans_dist::WriteResp            28985                       # Transaction distribution
system.tol2bus.trans_dist::Writeback          1689519                       # Transaction distribution
system.tol2bus.trans_dist::UpgradeReq          197335                       # Transaction distribution
system.tol2bus.trans_dist::UpgradeResp         197335                       # Transaction distribution
system.tol2bus.trans_dist::ReadExReq           605232                       # Transaction distribution
system.tol2bus.trans_dist::ReadExResp          605232                       # Transaction distribution
system.tol2bus.pkt_count_system.cpu0.icache.mem_side::system.l2.cpu_side       680992                       # Packet count per connected master and slave (bytes)
system.tol2bus.pkt_count_system.cpu0.dcache.mem_side::system.l2.cpu_side     10708888                       # Packet count per connected master and slave (bytes)
system.tol2bus.pkt_count_system.cpu0.itb_walker_cache.mem_side::system.l2.cpu_side         4329                       # Packet count per connected master and slave (bytes)
system.tol2bus.pkt_count_system.cpu0.dtb_walker_cache.mem_side::system.l2.cpu_side         3201                       # Packet count per connected master and slave (bytes)
system.tol2bus.pkt_count_system.cpu1.icache.mem_side::system.l2.cpu_side       476836                       # Packet count per connected master and slave (bytes)
system.tol2bus.pkt_count_system.cpu1.dcache.mem_side::system.l2.cpu_side       721203                       # Packet count per connected master and slave (bytes)
system.tol2bus.pkt_count_system.cpu1.itb_walker_cache.mem_side::system.l2.cpu_side         2808                       # Packet count per connected master and slave (bytes)
system.tol2bus.pkt_count_system.cpu1.dtb_walker_cache.mem_side::system.l2.cpu_side         2084                       # Packet count per connected master and slave (bytes)
system.tol2bus.pkt_count_system.cpu2.icache.mem_side::system.l2.cpu_side       556788                       # Packet count per connected master and slave (bytes)
system.tol2bus.pkt_count_system.cpu2.dcache.mem_side::system.l2.cpu_side       682799                       # Packet count per connected master and slave (bytes)
system.tol2bus.pkt_count_system.cpu2.itb_walker_cache.mem_side::system.l2.cpu_side         3736                       # Packet count per connected master and slave (bytes)
system.tol2bus.pkt_count_system.cpu2.dtb_walker_cache.mem_side::system.l2.cpu_side         2718                       # Packet count per connected master and slave (bytes)
system.tol2bus.pkt_count_system.cpu3.icache.mem_side::system.l2.cpu_side       152176                       # Packet count per connected master and slave (bytes)
system.tol2bus.pkt_count_system.cpu3.dcache.mem_side::system.l2.cpu_side       219286                       # Packet count per connected master and slave (bytes)
system.tol2bus.pkt_count_system.cpu3.itb_walker_cache.mem_side::system.l2.cpu_side         3307                       # Packet count per connected master and slave (bytes)
system.tol2bus.pkt_count_system.cpu3.dtb_walker_cache.mem_side::system.l2.cpu_side         2530                       # Packet count per connected master and slave (bytes)
system.tol2bus.pkt_count::total              14223681                       # Packet count per connected master and slave (bytes)
system.tol2bus.pkt_size_system.cpu0.icache.mem_side::system.l2.cpu_side     21791744                       # Cumulative packet size per connected master and slave (bytes)
system.tol2bus.pkt_size_system.cpu0.dcache.mem_side::system.l2.cpu_side    202285933                       # Cumulative packet size per connected master and slave (bytes)
system.tol2bus.pkt_size_system.cpu0.itb_walker_cache.mem_side::system.l2.cpu_side       139008                       # Cumulative packet size per connected master and slave (bytes)
system.tol2bus.pkt_size_system.cpu0.dtb_walker_cache.mem_side::system.l2.cpu_side       103424                       # Cumulative packet size per connected master and slave (bytes)
system.tol2bus.pkt_size_system.cpu1.icache.mem_side::system.l2.cpu_side     15258752                       # Cumulative packet size per connected master and slave (bytes)
system.tol2bus.pkt_size_system.cpu1.dcache.mem_side::system.l2.cpu_side     19840577                       # Cumulative packet size per connected master and slave (bytes)
system.tol2bus.pkt_size_system.cpu1.itb_walker_cache.mem_side::system.l2.cpu_side        90880                       # Cumulative packet size per connected master and slave (bytes)
system.tol2bus.pkt_size_system.cpu1.dtb_walker_cache.mem_side::system.l2.cpu_side        67392                       # Cumulative packet size per connected master and slave (bytes)
system.tol2bus.pkt_size_system.cpu2.icache.mem_side::system.l2.cpu_side     17817216                       # Cumulative packet size per connected master and slave (bytes)
system.tol2bus.pkt_size_system.cpu2.dcache.mem_side::system.l2.cpu_side     21306741                       # Cumulative packet size per connected master and slave (bytes)
system.tol2bus.pkt_size_system.cpu2.itb_walker_cache.mem_side::system.l2.cpu_side       120640                       # Cumulative packet size per connected master and slave (bytes)
system.tol2bus.pkt_size_system.cpu2.dtb_walker_cache.mem_side::system.l2.cpu_side        87744                       # Cumulative packet size per connected master and slave (bytes)
system.tol2bus.pkt_size_system.cpu3.icache.mem_side::system.l2.cpu_side      4869632                       # Cumulative packet size per connected master and slave (bytes)
system.tol2bus.pkt_size_system.cpu3.dcache.mem_side::system.l2.cpu_side      6741305                       # Cumulative packet size per connected master and slave (bytes)
system.tol2bus.pkt_size_system.cpu3.itb_walker_cache.mem_side::system.l2.cpu_side       106816                       # Cumulative packet size per connected master and slave (bytes)
system.tol2bus.pkt_size_system.cpu3.dtb_walker_cache.mem_side::system.l2.cpu_side        82176                       # Cumulative packet size per connected master and slave (bytes)
system.tol2bus.pkt_size::total              310709980                       # Cumulative packet size per connected master and slave (bytes)
system.tol2bus.snoops                           43393                       # Total snoops (count)
system.tol2bus.snoop_fanout::samples          5047411                       # Request fanout histogram
system.tol2bus.snoop_fanout::mean           15.008480                       # Request fanout histogram
system.tol2bus.snoop_fanout::stdev           0.091697                       # Request fanout histogram
system.tol2bus.snoop_fanout::underflows             0      0.00%      0.00% # Request fanout histogram
system.tol2bus.snoop_fanout::0                      0      0.00%      0.00% # Request fanout histogram
system.tol2bus.snoop_fanout::1                      0      0.00%      0.00% # Request fanout histogram
system.tol2bus.snoop_fanout::2                      0      0.00%      0.00% # Request fanout histogram
system.tol2bus.snoop_fanout::3                      0      0.00%      0.00% # Request fanout histogram
system.tol2bus.snoop_fanout::4                      0      0.00%      0.00% # Request fanout histogram
system.tol2bus.snoop_fanout::5                      0      0.00%      0.00% # Request fanout histogram
system.tol2bus.snoop_fanout::6                      0      0.00%      0.00% # Request fanout histogram
system.tol2bus.snoop_fanout::7                      0      0.00%      0.00% # Request fanout histogram
system.tol2bus.snoop_fanout::8                      0      0.00%      0.00% # Request fanout histogram
system.tol2bus.snoop_fanout::9                      0      0.00%      0.00% # Request fanout histogram
system.tol2bus.snoop_fanout::10                     0      0.00%      0.00% # Request fanout histogram
system.tol2bus.snoop_fanout::11                     0      0.00%      0.00% # Request fanout histogram
system.tol2bus.snoop_fanout::12                     0      0.00%      0.00% # Request fanout histogram
system.tol2bus.snoop_fanout::13                     0      0.00%      0.00% # Request fanout histogram
system.tol2bus.snoop_fanout::14                     0      0.00%      0.00% # Request fanout histogram
system.tol2bus.snoop_fanout::15               5004608     99.15%     99.15% # Request fanout histogram
system.tol2bus.snoop_fanout::16                 42803      0.85%    100.00% # Request fanout histogram
system.tol2bus.snoop_fanout::overflows              0      0.00%    100.00% # Request fanout histogram
system.tol2bus.snoop_fanout::min_value             15                       # Request fanout histogram
system.tol2bus.snoop_fanout::max_value             16                       # Request fanout histogram
system.tol2bus.snoop_fanout::total            5047411                       # Request fanout histogram
system.membus.trans_dist::ReadReq             3116865                       # Transaction distribution
system.membus.trans_dist::ReadResp            3116865                       # Transaction distribution
system.membus.trans_dist::WriteReq              28985                       # Transaction distribution
system.membus.trans_dist::WriteResp             28985                       # Transaction distribution
system.membus.trans_dist::Writeback            547812                       # Transaction distribution
system.membus.trans_dist::WriteInvalidateReq        41648                       # Transaction distribution
system.membus.trans_dist::WriteInvalidateResp        41648                       # Transaction distribution
system.membus.trans_dist::UpgradeReq           202426                       # Transaction distribution
system.membus.trans_dist::UpgradeResp           53738                       # Transaction distribution
system.membus.trans_dist::ReadExReq            471971                       # Transaction distribution
system.membus.trans_dist::ReadExResp           421258                       # Transaction distribution
system.membus.trans_dist::MessageReq             4519                       # Transaction distribution
system.membus.trans_dist::MessageResp            4519                       # Transaction distribution
system.membus.pkt_count_system.apicbridge.master::system.cpu0.interrupts.int_slave          270                       # Packet count per connected master and slave (bytes)
system.membus.pkt_count_system.apicbridge.master::system.cpu1.interrupts.int_slave          142                       # Packet count per connected master and slave (bytes)
system.membus.pkt_count_system.apicbridge.master::system.cpu2.interrupts.int_slave          142                       # Packet count per connected master and slave (bytes)
system.membus.pkt_count_system.apicbridge.master::system.cpu3.interrupts.int_slave          140                       # Packet count per connected master and slave (bytes)
system.membus.pkt_count_system.apicbridge.master::total          694                       # Packet count per connected master and slave (bytes)
system.membus.pkt_count_system.iocache.mem_side::system.mem_ctrls.port        85606                       # Packet count per connected master and slave (bytes)
system.membus.pkt_count_system.iocache.mem_side::total        85606                       # Packet count per connected master and slave (bytes)
system.membus.pkt_count_system.l2.mem_side::system.bridge.slave      5861602                       # Packet count per connected master and slave (bytes)
system.membus.pkt_count_system.l2.mem_side::system.cpu0.interrupts.pio        11290                       # Packet count per connected master and slave (bytes)
system.membus.pkt_count_system.l2.mem_side::system.cpu1.interrupts.pio        17742                       # Packet count per connected master and slave (bytes)
system.membus.pkt_count_system.l2.mem_side::system.cpu2.interrupts.pio         9798                       # Packet count per connected master and slave (bytes)
system.membus.pkt_count_system.l2.mem_side::system.cpu3.interrupts.pio         3552                       # Packet count per connected master and slave (bytes)
system.membus.pkt_count_system.l2.mem_side::system.mem_ctrls.port      2082611                       # Packet count per connected master and slave (bytes)
system.membus.pkt_count_system.l2.mem_side::total      7986595                       # Packet count per connected master and slave (bytes)
system.membus.pkt_count_system.cpu0.interrupts.int_master::system.cpu1.interrupts.int_slave         2068                       # Packet count per connected master and slave (bytes)
system.membus.pkt_count_system.cpu0.interrupts.int_master::system.cpu2.interrupts.int_slave          202                       # Packet count per connected master and slave (bytes)
system.membus.pkt_count_system.cpu0.interrupts.int_master::system.cpu3.interrupts.int_slave          182                       # Packet count per connected master and slave (bytes)
system.membus.pkt_count_system.cpu0.interrupts.int_master::total         2452                       # Packet count per connected master and slave (bytes)
system.membus.pkt_count_system.cpu1.interrupts.int_master::system.cpu0.interrupts.int_slave         1874                       # Packet count per connected master and slave (bytes)
system.membus.pkt_count_system.cpu1.interrupts.int_master::system.cpu2.interrupts.int_slave         1668                       # Packet count per connected master and slave (bytes)
system.membus.pkt_count_system.cpu1.interrupts.int_master::system.cpu3.interrupts.int_slave          220                       # Packet count per connected master and slave (bytes)
system.membus.pkt_count_system.cpu1.interrupts.int_master::total         3762                       # Packet count per connected master and slave (bytes)
system.membus.pkt_count_system.cpu2.interrupts.int_master::system.cpu0.interrupts.int_slave           78                       # Packet count per connected master and slave (bytes)
system.membus.pkt_count_system.cpu2.interrupts.int_master::system.cpu1.interrupts.int_slave         1772                       # Packet count per connected master and slave (bytes)
system.membus.pkt_count_system.cpu2.interrupts.int_master::system.cpu3.interrupts.int_slave           54                       # Packet count per connected master and slave (bytes)
system.membus.pkt_count_system.cpu2.interrupts.int_master::total         1904                       # Packet count per connected master and slave (bytes)
system.membus.pkt_count_system.cpu3.interrupts.int_master::system.cpu0.interrupts.int_slave            6                       # Packet count per connected master and slave (bytes)
system.membus.pkt_count_system.cpu3.interrupts.int_master::system.cpu1.interrupts.int_slave          214                       # Packet count per connected master and slave (bytes)
system.membus.pkt_count_system.cpu3.interrupts.int_master::system.cpu2.interrupts.int_slave            6                       # Packet count per connected master and slave (bytes)
system.membus.pkt_count_system.cpu3.interrupts.int_master::total          226                       # Packet count per connected master and slave (bytes)
system.membus.pkt_count::total                8081239                       # Packet count per connected master and slave (bytes)
system.membus.pkt_size_system.apicbridge.master::system.cpu0.interrupts.int_slave          540                       # Cumulative packet size per connected master and slave (bytes)
system.membus.pkt_size_system.apicbridge.master::system.cpu1.interrupts.int_slave          284                       # Cumulative packet size per connected master and slave (bytes)
system.membus.pkt_size_system.apicbridge.master::system.cpu2.interrupts.int_slave          284                       # Cumulative packet size per connected master and slave (bytes)
system.membus.pkt_size_system.apicbridge.master::system.cpu3.interrupts.int_slave          280                       # Cumulative packet size per connected master and slave (bytes)
system.membus.pkt_size_system.apicbridge.master::total         1388                       # Cumulative packet size per connected master and slave (bytes)
system.membus.pkt_size_system.iocache.mem_side::system.mem_ctrls.port      2739392                       # Cumulative packet size per connected master and slave (bytes)
system.membus.pkt_size_system.iocache.mem_side::total      2739392                       # Cumulative packet size per connected master and slave (bytes)
system.membus.pkt_size_system.l2.mem_side::system.bridge.slave      2959744                       # Cumulative packet size per connected master and slave (bytes)
system.membus.pkt_size_system.l2.mem_side::system.cpu0.interrupts.pio        22580                       # Cumulative packet size per connected master and slave (bytes)
system.membus.pkt_size_system.l2.mem_side::system.cpu1.interrupts.pio        35484                       # Cumulative packet size per connected master and slave (bytes)
system.membus.pkt_size_system.l2.mem_side::system.cpu2.interrupts.pio        19596                       # Cumulative packet size per connected master and slave (bytes)
system.membus.pkt_size_system.l2.mem_side::system.cpu3.interrupts.pio         7104                       # Cumulative packet size per connected master and slave (bytes)
system.membus.pkt_size_system.l2.mem_side::system.mem_ctrls.port     74353472                       # Cumulative packet size per connected master and slave (bytes)
system.membus.pkt_size_system.l2.mem_side::total     77397980                       # Cumulative packet size per connected master and slave (bytes)
system.membus.pkt_size_system.cpu0.interrupts.int_master::system.cpu1.interrupts.int_slave         4136                       # Cumulative packet size per connected master and slave (bytes)
system.membus.pkt_size_system.cpu0.interrupts.int_master::system.cpu2.interrupts.int_slave          404                       # Cumulative packet size per connected master and slave (bytes)
system.membus.pkt_size_system.cpu0.interrupts.int_master::system.cpu3.interrupts.int_slave          364                       # Cumulative packet size per connected master and slave (bytes)
system.membus.pkt_size_system.cpu0.interrupts.int_master::total         4904                       # Cumulative packet size per connected master and slave (bytes)
system.membus.pkt_size_system.cpu1.interrupts.int_master::system.cpu0.interrupts.int_slave         3748                       # Cumulative packet size per connected master and slave (bytes)
system.membus.pkt_size_system.cpu1.interrupts.int_master::system.cpu2.interrupts.int_slave         3336                       # Cumulative packet size per connected master and slave (bytes)
system.membus.pkt_size_system.cpu1.interrupts.int_master::system.cpu3.interrupts.int_slave          440                       # Cumulative packet size per connected master and slave (bytes)
system.membus.pkt_size_system.cpu1.interrupts.int_master::total         7524                       # Cumulative packet size per connected master and slave (bytes)
system.membus.pkt_size_system.cpu2.interrupts.int_master::system.cpu0.interrupts.int_slave          156                       # Cumulative packet size per connected master and slave (bytes)
system.membus.pkt_size_system.cpu2.interrupts.int_master::system.cpu1.interrupts.int_slave         3544                       # Cumulative packet size per connected master and slave (bytes)
system.membus.pkt_size_system.cpu2.interrupts.int_master::system.cpu3.interrupts.int_slave          108                       # Cumulative packet size per connected master and slave (bytes)
system.membus.pkt_size_system.cpu2.interrupts.int_master::total         3808                       # Cumulative packet size per connected master and slave (bytes)
system.membus.pkt_size_system.cpu3.interrupts.int_master::system.cpu0.interrupts.int_slave           12                       # Cumulative packet size per connected master and slave (bytes)
system.membus.pkt_size_system.cpu3.interrupts.int_master::system.cpu1.interrupts.int_slave          428                       # Cumulative packet size per connected master and slave (bytes)
system.membus.pkt_size_system.cpu3.interrupts.int_master::system.cpu2.interrupts.int_slave           12                       # Cumulative packet size per connected master and slave (bytes)
system.membus.pkt_size_system.cpu3.interrupts.int_master::total          452                       # Cumulative packet size per connected master and slave (bytes)
system.membus.pkt_size::total                80155448                       # Cumulative packet size per connected master and slave (bytes)
system.membus.snoops                                0                       # Total snoops (count)
system.membus.snoop_fanout::samples           1457715                       # Request fanout histogram
system.membus.snoop_fanout::mean                    1                       # Request fanout histogram
system.membus.snoop_fanout::stdev                   0                       # Request fanout histogram
system.membus.snoop_fanout::underflows              0      0.00%      0.00% # Request fanout histogram
system.membus.snoop_fanout::0                       0      0.00%      0.00% # Request fanout histogram
system.membus.snoop_fanout::1                 1457715    100.00%    100.00% # Request fanout histogram
system.membus.snoop_fanout::2                       0      0.00%    100.00% # Request fanout histogram
system.membus.snoop_fanout::overflows               0      0.00%    100.00% # Request fanout histogram
system.membus.snoop_fanout::min_value               1                       # Request fanout histogram
system.membus.snoop_fanout::max_value               1                       # Request fanout histogram
system.membus.snoop_fanout::total             1457715                       # Request fanout histogram
system.pc.south_bridge.ide.disks0.dma_read_full_pages            9                       # Number of full page size DMA reads (not PRD).
system.pc.south_bridge.ide.disks0.dma_read_bytes        36864                       # Number of bytes transfered via DMA reads (not PRD).
system.pc.south_bridge.ide.disks0.dma_read_txs            9                       # Number of DMA read transactions (not PRD).
system.pc.south_bridge.ide.disks0.dma_write_full_pages          649                       # Number of full page size DMA writes.
system.pc.south_bridge.ide.disks0.dma_write_bytes      2661376                       # Number of bytes transfered via DMA writes.
system.pc.south_bridge.ide.disks0.dma_write_txs          653                       # Number of DMA write transactions.
system.pc.south_bridge.ide.disks1.dma_read_full_pages            0                       # Number of full page size DMA reads (not PRD).
system.pc.south_bridge.ide.disks1.dma_read_bytes            0                       # Number of bytes transfered via DMA reads (not PRD).
system.pc.south_bridge.ide.disks1.dma_read_txs            0                       # Number of DMA read transactions (not PRD).
system.pc.south_bridge.ide.disks1.dma_write_full_pages            1                       # Number of full page size DMA writes.
system.pc.south_bridge.ide.disks1.dma_write_bytes         4096                       # Number of bytes transfered via DMA writes.
system.pc.south_bridge.ide.disks1.dma_write_txs            1                       # Number of DMA write transactions.
system.l2.tags.replacements                    581056                       # number of replacements
system.l2.tags.tagsinuse                 32087.031931                       # Cycle average of tags in use
system.l2.tags.total_refs                     2166425                       # Total number of references to valid blocks.
system.l2.tags.sampled_refs                    581056                       # Sample count of references to valid blocks.
system.l2.tags.avg_refs                      3.728427                       # Average number of references to valid blocks.
system.l2.tags.warmup_cycle               54211260500                       # Cycle when the warmup percentage was hit.
system.l2.tags.occ_blocks::writebacks    20595.233173                       # Average occupied blocks per requestor
system.l2.tags.occ_blocks::cpu0.dtb.walker     1.352611                       # Average occupied blocks per requestor
system.l2.tags.occ_blocks::cpu0.itb.walker     0.005390                       # Average occupied blocks per requestor
system.l2.tags.occ_blocks::cpu0.inst      1579.215240                       # Average occupied blocks per requestor
system.l2.tags.occ_blocks::cpu0.data      7421.879619                       # Average occupied blocks per requestor
system.l2.tags.occ_blocks::cpu1.dtb.walker     0.090416                       # Average occupied blocks per requestor
system.l2.tags.occ_blocks::cpu1.itb.walker     0.000959                       # Average occupied blocks per requestor
system.l2.tags.occ_blocks::cpu1.inst       133.088665                       # Average occupied blocks per requestor
system.l2.tags.occ_blocks::cpu1.data       225.711834                       # Average occupied blocks per requestor
system.l2.tags.occ_blocks::cpu2.dtb.walker     0.000458                       # Average occupied blocks per requestor
system.l2.tags.occ_blocks::cpu2.inst       204.647116                       # Average occupied blocks per requestor
system.l2.tags.occ_blocks::cpu2.data      1443.875041                       # Average occupied blocks per requestor
system.l2.tags.occ_blocks::cpu3.dtb.walker     0.001872                       # Average occupied blocks per requestor
system.l2.tags.occ_blocks::cpu3.inst        48.537953                       # Average occupied blocks per requestor
system.l2.tags.occ_blocks::cpu3.data       433.391585                       # Average occupied blocks per requestor
system.l2.tags.occ_percent::writebacks       0.628517                       # Average percentage of cache occupancy
system.l2.tags.occ_percent::cpu0.dtb.walker     0.000041                       # Average percentage of cache occupancy
system.l2.tags.occ_percent::cpu0.itb.walker     0.000000                       # Average percentage of cache occupancy
system.l2.tags.occ_percent::cpu0.inst        0.048194                       # Average percentage of cache occupancy
system.l2.tags.occ_percent::cpu0.data        0.226498                       # Average percentage of cache occupancy
system.l2.tags.occ_percent::cpu1.dtb.walker     0.000003                       # Average percentage of cache occupancy
system.l2.tags.occ_percent::cpu1.itb.walker     0.000000                       # Average percentage of cache occupancy
system.l2.tags.occ_percent::cpu1.inst        0.004062                       # Average percentage of cache occupancy
system.l2.tags.occ_percent::cpu1.data        0.006888                       # Average percentage of cache occupancy
system.l2.tags.occ_percent::cpu2.dtb.walker     0.000000                       # Average percentage of cache occupancy
system.l2.tags.occ_percent::cpu2.inst        0.006245                       # Average percentage of cache occupancy
system.l2.tags.occ_percent::cpu2.data        0.044064                       # Average percentage of cache occupancy
system.l2.tags.occ_percent::cpu3.dtb.walker     0.000000                       # Average percentage of cache occupancy
system.l2.tags.occ_percent::cpu3.inst        0.001481                       # Average percentage of cache occupancy
system.l2.tags.occ_percent::cpu3.data        0.013226                       # Average percentage of cache occupancy
system.l2.tags.occ_percent::total            0.979219                       # Average percentage of cache occupancy
system.l2.tags.occ_task_id_blocks::1024         31019                       # Occupied blocks per task id
system.l2.tags.age_task_id_blocks_1024::0           78                       # Occupied blocks per task id
system.l2.tags.age_task_id_blocks_1024::1          799                       # Occupied blocks per task id
system.l2.tags.age_task_id_blocks_1024::2         8553                       # Occupied blocks per task id
system.l2.tags.age_task_id_blocks_1024::3        16584                       # Occupied blocks per task id
system.l2.tags.age_task_id_blocks_1024::4         5005                       # Occupied blocks per task id
system.l2.tags.occ_task_id_percent::1024     0.946625                       # Percentage of cache occupancy per task id
system.l2.tags.tag_accesses                  37326472                       # Number of tag accesses
system.l2.tags.data_accesses                 37326472                       # Number of data accesses
system.l2.ReadReq_hits::cpu0.dtb.walker           898                       # number of ReadReq hits
system.l2.ReadReq_hits::cpu0.itb.walker          1182                       # number of ReadReq hits
system.l2.ReadReq_hits::cpu0.inst              329306                       # number of ReadReq hits
system.l2.ReadReq_hits::cpu0.data             1002752                       # number of ReadReq hits
system.l2.ReadReq_hits::cpu1.dtb.walker           731                       # number of ReadReq hits
system.l2.ReadReq_hits::cpu1.itb.walker           980                       # number of ReadReq hits
system.l2.ReadReq_hits::cpu1.inst              236959                       # number of ReadReq hits
system.l2.ReadReq_hits::cpu1.data               40341                       # number of ReadReq hits
system.l2.ReadReq_hits::cpu2.dtb.walker           660                       # number of ReadReq hits
system.l2.ReadReq_hits::cpu2.itb.walker           850                       # number of ReadReq hits
system.l2.ReadReq_hits::cpu2.inst              275939                       # number of ReadReq hits
system.l2.ReadReq_hits::cpu2.data               50182                       # number of ReadReq hits
system.l2.ReadReq_hits::cpu3.dtb.walker           633                       # number of ReadReq hits
system.l2.ReadReq_hits::cpu3.itb.walker           852                       # number of ReadReq hits
system.l2.ReadReq_hits::cpu3.inst               73448                       # number of ReadReq hits
system.l2.ReadReq_hits::cpu3.data               16199                       # number of ReadReq hits
system.l2.ReadReq_hits::total                 2031912                       # number of ReadReq hits
system.l2.Writeback_hits::writebacks          1689519                       # number of Writeback hits
system.l2.Writeback_hits::total               1689519                       # number of Writeback hits
system.l2.UpgradeReq_hits::cpu0.data              970                       # number of UpgradeReq hits
system.l2.UpgradeReq_hits::cpu1.data              221                       # number of UpgradeReq hits
system.l2.UpgradeReq_hits::cpu2.data              161                       # number of UpgradeReq hits
system.l2.UpgradeReq_hits::cpu3.data               93                       # number of UpgradeReq hits
system.l2.UpgradeReq_hits::total                 1445                       # number of UpgradeReq hits
system.l2.ReadExReq_hits::cpu0.data             67525                       # number of ReadExReq hits
system.l2.ReadExReq_hits::cpu1.data             44109                       # number of ReadExReq hits
system.l2.ReadExReq_hits::cpu2.data             11867                       # number of ReadExReq hits
system.l2.ReadExReq_hits::cpu3.data              3224                       # number of ReadExReq hits
system.l2.ReadExReq_hits::total                126725                       # number of ReadExReq hits
system.l2.demand_hits::cpu0.dtb.walker            898                       # number of demand (read+write) hits
system.l2.demand_hits::cpu0.itb.walker           1182                       # number of demand (read+write) hits
system.l2.demand_hits::cpu0.inst               329306                       # number of demand (read+write) hits
system.l2.demand_hits::cpu0.data              1070277                       # number of demand (read+write) hits
system.l2.demand_hits::cpu1.dtb.walker            731                       # number of demand (read+write) hits
system.l2.demand_hits::cpu1.itb.walker            980                       # number of demand (read+write) hits
system.l2.demand_hits::cpu1.inst               236959                       # number of demand (read+write) hits
system.l2.demand_hits::cpu1.data                84450                       # number of demand (read+write) hits
system.l2.demand_hits::cpu2.dtb.walker            660                       # number of demand (read+write) hits
system.l2.demand_hits::cpu2.itb.walker            850                       # number of demand (read+write) hits
system.l2.demand_hits::cpu2.inst               275939                       # number of demand (read+write) hits
system.l2.demand_hits::cpu2.data                62049                       # number of demand (read+write) hits
system.l2.demand_hits::cpu3.dtb.walker            633                       # number of demand (read+write) hits
system.l2.demand_hits::cpu3.itb.walker            852                       # number of demand (read+write) hits
system.l2.demand_hits::cpu3.inst                73448                       # number of demand (read+write) hits
system.l2.demand_hits::cpu3.data                19423                       # number of demand (read+write) hits
system.l2.demand_hits::total                  2158637                       # number of demand (read+write) hits
system.l2.overall_hits::cpu0.dtb.walker           898                       # number of overall hits
system.l2.overall_hits::cpu0.itb.walker          1182                       # number of overall hits
system.l2.overall_hits::cpu0.inst              329306                       # number of overall hits
system.l2.overall_hits::cpu0.data             1070277                       # number of overall hits
system.l2.overall_hits::cpu1.dtb.walker           731                       # number of overall hits
system.l2.overall_hits::cpu1.itb.walker           980                       # number of overall hits
system.l2.overall_hits::cpu1.inst              236959                       # number of overall hits
system.l2.overall_hits::cpu1.data               84450                       # number of overall hits
system.l2.overall_hits::cpu2.dtb.walker           660                       # number of overall hits
system.l2.overall_hits::cpu2.itb.walker           850                       # number of overall hits
system.l2.overall_hits::cpu2.inst              275939                       # number of overall hits
system.l2.overall_hits::cpu2.data               62049                       # number of overall hits
system.l2.overall_hits::cpu3.dtb.walker           633                       # number of overall hits
system.l2.overall_hits::cpu3.itb.walker           852                       # number of overall hits
system.l2.overall_hits::cpu3.inst               73448                       # number of overall hits
system.l2.overall_hits::cpu3.data               19423                       # number of overall hits
system.l2.overall_hits::total                 2158637                       # number of overall hits
system.l2.ReadReq_misses::cpu0.dtb.walker           30                       # number of ReadReq misses
system.l2.ReadReq_misses::cpu0.itb.walker            4                       # number of ReadReq misses
system.l2.ReadReq_misses::cpu0.inst             11188                       # number of ReadReq misses
system.l2.ReadReq_misses::cpu0.data            160013                       # number of ReadReq misses
system.l2.ReadReq_misses::cpu1.dtb.walker           10                       # number of ReadReq misses
system.l2.ReadReq_misses::cpu1.itb.walker            1                       # number of ReadReq misses
system.l2.ReadReq_misses::cpu1.inst              1451                       # number of ReadReq misses
system.l2.ReadReq_misses::cpu1.data              4771                       # number of ReadReq misses
system.l2.ReadReq_misses::cpu2.dtb.walker            1                       # number of ReadReq misses
system.l2.ReadReq_misses::cpu2.inst              2447                       # number of ReadReq misses
system.l2.ReadReq_misses::cpu2.data              7177                       # number of ReadReq misses
system.l2.ReadReq_misses::cpu3.dtb.walker            5                       # number of ReadReq misses
system.l2.ReadReq_misses::cpu3.inst              2632                       # number of ReadReq misses
system.l2.ReadReq_misses::cpu3.data              2973                       # number of ReadReq misses
system.l2.ReadReq_misses::total                192703                       # number of ReadReq misses
system.l2.UpgradeReq_misses::cpu0.data          16561                       # number of UpgradeReq misses
system.l2.UpgradeReq_misses::cpu1.data          14906                       # number of UpgradeReq misses
system.l2.UpgradeReq_misses::cpu2.data           9109                       # number of UpgradeReq misses
system.l2.UpgradeReq_misses::cpu3.data           6626                       # number of UpgradeReq misses
system.l2.UpgradeReq_misses::total              47202                       # number of UpgradeReq misses
system.l2.ReadExReq_misses::cpu0.data          344050                       # number of ReadExReq misses
system.l2.ReadExReq_misses::cpu1.data           49835                       # number of ReadExReq misses
system.l2.ReadExReq_misses::cpu2.data           23258                       # number of ReadExReq misses
system.l2.ReadExReq_misses::cpu3.data           10651                       # number of ReadExReq misses
system.l2.ReadExReq_misses::total              427794                       # number of ReadExReq misses
system.l2.demand_misses::cpu0.dtb.walker           30                       # number of demand (read+write) misses
system.l2.demand_misses::cpu0.itb.walker            4                       # number of demand (read+write) misses
system.l2.demand_misses::cpu0.inst              11188                       # number of demand (read+write) misses
system.l2.demand_misses::cpu0.data             504063                       # number of demand (read+write) misses
system.l2.demand_misses::cpu1.dtb.walker           10                       # number of demand (read+write) misses
system.l2.demand_misses::cpu1.itb.walker            1                       # number of demand (read+write) misses
system.l2.demand_misses::cpu1.inst               1451                       # number of demand (read+write) misses
system.l2.demand_misses::cpu1.data              54606                       # number of demand (read+write) misses
system.l2.demand_misses::cpu2.dtb.walker            1                       # number of demand (read+write) misses
system.l2.demand_misses::cpu2.inst               2447                       # number of demand (read+write) misses
system.l2.demand_misses::cpu2.data              30435                       # number of demand (read+write) misses
system.l2.demand_misses::cpu3.dtb.walker            5                       # number of demand (read+write) misses
system.l2.demand_misses::cpu3.inst               2632                       # number of demand (read+write) misses
system.l2.demand_misses::cpu3.data              13624                       # number of demand (read+write) misses
system.l2.demand_misses::total                 620497                       # number of demand (read+write) misses
system.l2.overall_misses::cpu0.dtb.walker           30                       # number of overall misses
system.l2.overall_misses::cpu0.itb.walker            4                       # number of overall misses
system.l2.overall_misses::cpu0.inst             11188                       # number of overall misses
system.l2.overall_misses::cpu0.data            504063                       # number of overall misses
system.l2.overall_misses::cpu1.dtb.walker           10                       # number of overall misses
system.l2.overall_misses::cpu1.itb.walker            1                       # number of overall misses
system.l2.overall_misses::cpu1.inst              1451                       # number of overall misses
system.l2.overall_misses::cpu1.data             54606                       # number of overall misses
system.l2.overall_misses::cpu2.dtb.walker            1                       # number of overall misses
system.l2.overall_misses::cpu2.inst              2447                       # number of overall misses
system.l2.overall_misses::cpu2.data             30435                       # number of overall misses
system.l2.overall_misses::cpu3.dtb.walker            5                       # number of overall misses
system.l2.overall_misses::cpu3.inst              2632                       # number of overall misses
system.l2.overall_misses::cpu3.data             13624                       # number of overall misses
system.l2.overall_misses::total                620497                       # number of overall misses
system.l2.ReadReq_accesses::cpu0.dtb.walker          928                       # number of ReadReq accesses(hits+misses)
system.l2.ReadReq_accesses::cpu0.itb.walker         1186                       # number of ReadReq accesses(hits+misses)
system.l2.ReadReq_accesses::cpu0.inst          340494                       # number of ReadReq accesses(hits+misses)
system.l2.ReadReq_accesses::cpu0.data         1162765                       # number of ReadReq accesses(hits+misses)
system.l2.ReadReq_accesses::cpu1.dtb.walker          741                       # number of ReadReq accesses(hits+misses)
system.l2.ReadReq_accesses::cpu1.itb.walker          981                       # number of ReadReq accesses(hits+misses)
system.l2.ReadReq_accesses::cpu1.inst          238410                       # number of ReadReq accesses(hits+misses)
system.l2.ReadReq_accesses::cpu1.data           45112                       # number of ReadReq accesses(hits+misses)
system.l2.ReadReq_accesses::cpu2.dtb.walker          661                       # number of ReadReq accesses(hits+misses)
system.l2.ReadReq_accesses::cpu2.itb.walker          850                       # number of ReadReq accesses(hits+misses)
system.l2.ReadReq_accesses::cpu2.inst          278386                       # number of ReadReq accesses(hits+misses)
system.l2.ReadReq_accesses::cpu2.data           57359                       # number of ReadReq accesses(hits+misses)
system.l2.ReadReq_accesses::cpu3.dtb.walker          638                       # number of ReadReq accesses(hits+misses)
system.l2.ReadReq_accesses::cpu3.itb.walker          852                       # number of ReadReq accesses(hits+misses)
system.l2.ReadReq_accesses::cpu3.inst           76080                       # number of ReadReq accesses(hits+misses)
[...]
system.cpu3.itb_walker_cache.blocked::no_mshrs            0                       # number of cycles access was blocked
system.cpu3.itb_walker_cache.blocked::no_targets            0                       # number of cycles access was blocked
system.cpu3.itb_walker_cache.avg_blocked_cycles::no_mshrs          nan                       # average number of cycles each access was blocked
system.cpu3.itb_walker_cache.avg_blocked_cycles::no_targets          nan                       # average number of cycles each access was blocked
system.cpu3.itb_walker_cache.fast_writes            0                       # number of fast writes performed
system.cpu3.itb_walker_cache.cache_copies            0                       # number of cache copies performed
system.cpu3.itb_walker_cache.no_allocate_misses            0                       # Number of misses that were no-allocate
system.cpu3.dtb_walker_cache.tags.replacements          230                       # number of replacements
system.cpu3.dtb_walker_cache.tags.tagsinuse    15.999632                       # Cycle average of tags in use
system.cpu3.dtb_walker_cache.tags.total_refs          640                       # Total number of references to valid blocks.
system.cpu3.dtb_walker_cache.tags.sampled_refs          246                       # Sample count of references to valid blocks.
system.cpu3.dtb_walker_cache.tags.avg_refs     2.601626                       # Average number of references to valid blocks.
system.cpu3.dtb_walker_cache.tags.warmup_cycle            0                       # Cycle when the warmup percentage was hit.
system.cpu3.dtb_walker_cache.tags.occ_blocks::cpu3.dtb.walker    15.999632                       # Average occupied blocks per requestor
system.cpu3.dtb_walker_cache.tags.occ_percent::cpu3.dtb.walker     0.999977                       # Average percentage of cache occupancy
system.cpu3.dtb_walker_cache.tags.occ_percent::total     0.999977                       # Average percentage of cache occupancy
system.cpu3.dtb_walker_cache.tags.occ_task_id_blocks::1024           16                       # Occupied blocks per task id
system.cpu3.dtb_walker_cache.tags.age_task_id_blocks_1024::4           16                       # Occupied blocks per task id
system.cpu3.dtb_walker_cache.tags.occ_task_id_percent::1024            1                       # Percentage of cache occupancy per task id
system.cpu3.dtb_walker_cache.tags.tag_accesses         1489                       # Number of tag accesses
system.cpu3.dtb_walker_cache.tags.data_accesses         1489                       # Number of data accesses
system.cpu3.dtb_walker_cache.ReadReq_hits::cpu3.dtb.walker          389                       # number of ReadReq hits
system.cpu3.dtb_walker_cache.ReadReq_hits::total          389                       # number of ReadReq hits
system.cpu3.dtb_walker_cache.demand_hits::cpu3.dtb.walker          389                       # number of demand (read+write) hits
system.cpu3.dtb_walker_cache.demand_hits::total          389                       # number of demand (read+write) hits
system.cpu3.dtb_walker_cache.overall_hits::cpu3.dtb.walker          389                       # number of overall hits
system.cpu3.dtb_walker_cache.overall_hits::total          389                       # number of overall hits
system.cpu3.dtb_walker_cache.ReadReq_misses::cpu3.dtb.walker          237                       # number of ReadReq misses
system.cpu3.dtb_walker_cache.ReadReq_misses::total          237                       # number of ReadReq misses
system.cpu3.dtb_walker_cache.demand_misses::cpu3.dtb.walker          237                       # number of demand (read+write) misses
system.cpu3.dtb_walker_cache.demand_misses::total          237                       # number of demand (read+write) misses
system.cpu3.dtb_walker_cache.overall_misses::cpu3.dtb.walker          237                       # number of overall misses
system.cpu3.dtb_walker_cache.overall_misses::total          237                       # number of overall misses
system.cpu3.dtb_walker_cache.ReadReq_accesses::cpu3.dtb.walker          626                       # number of ReadReq accesses(hits+misses)
system.cpu3.dtb_walker_cache.ReadReq_accesses::total          626                       # number of ReadReq accesses(hits+misses)
system.cpu3.dtb_walker_cache.demand_accesses::cpu3.dtb.walker          626                       # number of demand (read+write) accesses
system.cpu3.dtb_walker_cache.demand_accesses::total          626                       # number of demand (read+write) accesses
system.cpu3.dtb_walker_cache.overall_accesses::cpu3.dtb.walker          626                       # number of overall (read+write) accesses
system.cpu3.dtb_walker_cache.overall_accesses::total          626                       # number of overall (read+write) accesses
system.cpu3.dtb_walker_cache.ReadReq_miss_rate::cpu3.dtb.walker     0.378594                       # miss rate for ReadReq accesses
system.cpu3.dtb_walker_cache.ReadReq_miss_rate::total     0.378594                       # miss rate for ReadReq accesses
system.cpu3.dtb_walker_cache.demand_miss_rate::cpu3.dtb.walker     0.378594                       # miss rate for demand accesses
system.cpu3.dtb_walker_cache.demand_miss_rate::total     0.378594                       # miss rate for demand accesses
system.cpu3.dtb_walker_cache.overall_miss_rate::cpu3.dtb.walker     0.378594                       # miss rate for overall accesses
system.cpu3.dtb_walker_cache.overall_miss_rate::total     0.378594                       # miss rate for overall accesses
system.cpu3.dtb_walker_cache.blocked_cycles::no_mshrs            0                       # number of cycles access was blocked
system.cpu3.dtb_walker_cache.blocked_cycles::no_targets            0                       # number of cycles access was blocked
system.cpu3.dtb_walker_cache.blocked::no_mshrs            0                       # number of cycles access was blocked
system.cpu3.dtb_walker_cache.blocked::no_targets            0                       # number of cycles access was blocked
system.cpu3.dtb_walker_cache.avg_blocked_cycles::no_mshrs          nan                       # average number of cycles each access was blocked
system.cpu3.dtb_walker_cache.avg_blocked_cycles::no_targets          nan                       # average number of cycles each access was blocked
system.cpu3.dtb_walker_cache.fast_writes            0                       # number of fast writes performed
system.cpu3.dtb_walker_cache.cache_copies            0                       # number of cache copies performed
system.cpu3.dtb_walker_cache.no_allocate_misses            0                       # Number of misses that were no-allocate
system.cpu3.dcache.tags.replacements            19178                       # number of replacements
system.cpu3.dcache.tags.tagsinuse          999.873551                       # Cycle average of tags in use
system.cpu3.dcache.tags.total_refs            8313753                       # Total number of references to valid blocks.
system.cpu3.dcache.tags.sampled_refs            20177                       # Sample count of references to valid blocks.
system.cpu3.dcache.tags.avg_refs           412.041086                       # Average number of references to valid blocks.
system.cpu3.dcache.tags.warmup_cycle                0                       # Cycle when the warmup percentage was hit.
system.cpu3.dcache.tags.occ_blocks::cpu3.data   999.873551                       # Average occupied blocks per requestor
system.cpu3.dcache.tags.occ_percent::cpu3.data     0.976439                       # Average percentage of cache occupancy
system.cpu3.dcache.tags.occ_percent::total     0.976439                       # Average percentage of cache occupancy
system.cpu3.dcache.tags.occ_task_id_blocks::1024          999                       # Occupied blocks per task id
system.cpu3.dcache.tags.age_task_id_blocks_1024::0            4                       # Occupied blocks per task id
system.cpu3.dcache.tags.age_task_id_blocks_1024::1           15                       # Occupied blocks per task id
system.cpu3.dcache.tags.age_task_id_blocks_1024::2           83                       # Occupied blocks per task id
system.cpu3.dcache.tags.age_task_id_blocks_1024::3           31                       # Occupied blocks per task id
system.cpu3.dcache.tags.age_task_id_blocks_1024::4          866                       # Occupied blocks per task id
system.cpu3.dcache.tags.occ_task_id_percent::1024     0.975586                       # Percentage of cache occupancy per task id
system.cpu3.dcache.tags.tag_accesses         16621203                       # Number of tag accesses
system.cpu3.dcache.tags.data_accesses        16621203                       # Number of data accesses
system.cpu3.dcache.ReadReq_hits::cpu3.data      5880561                       # number of ReadReq hits
system.cpu3.dcache.ReadReq_hits::total        5880561                       # number of ReadReq hits
system.cpu3.dcache.WriteReq_hits::cpu3.data      2399545                       # number of WriteReq hits
system.cpu3.dcache.WriteReq_hits::total       2399545                       # number of WriteReq hits
system.cpu3.dcache.SoftPFReq_hits::cpu3.data           78                       # number of SoftPFReq hits
system.cpu3.dcache.SoftPFReq_hits::total           78                       # number of SoftPFReq hits
system.cpu3.dcache.demand_hits::cpu3.data      8280106                       # number of demand (read+write) hits
system.cpu3.dcache.demand_hits::total         8280106                       # number of demand (read+write) hits
system.cpu3.dcache.overall_hits::cpu3.data      8280184                       # number of overall hits
system.cpu3.dcache.overall_hits::total        8280184                       # number of overall hits
system.cpu3.dcache.ReadReq_misses::cpu3.data        16913                       # number of ReadReq misses
system.cpu3.dcache.ReadReq_misses::total        16913                       # number of ReadReq misses
system.cpu3.dcache.WriteReq_misses::cpu3.data         3521                       # number of WriteReq misses
system.cpu3.dcache.WriteReq_misses::total         3521                       # number of WriteReq misses
system.cpu3.dcache.SoftPFReq_misses::cpu3.data           51                       # number of SoftPFReq misses
system.cpu3.dcache.SoftPFReq_misses::total           51                       # number of SoftPFReq misses
system.cpu3.dcache.demand_misses::cpu3.data        20434                       # number of demand (read+write) misses
system.cpu3.dcache.demand_misses::total         20434                       # number of demand (read+write) misses
system.cpu3.dcache.overall_misses::cpu3.data        20485                       # number of overall misses
system.cpu3.dcache.overall_misses::total        20485                       # number of overall misses
system.cpu3.dcache.ReadReq_accesses::cpu3.data      5897474                       # number of ReadReq accesses(hits+misses)
system.cpu3.dcache.ReadReq_accesses::total      5897474                       # number of ReadReq accesses(hits+misses)
system.cpu3.dcache.WriteReq_accesses::cpu3.data      2403066                       # number of WriteReq accesses(hits+misses)
system.cpu3.dcache.WriteReq_accesses::total      2403066                       # number of WriteReq accesses(hits+misses)
system.cpu3.dcache.SoftPFReq_accesses::cpu3.data          129                       # number of SoftPFReq accesses(hits+misses)
system.cpu3.dcache.SoftPFReq_accesses::total          129                       # number of SoftPFReq accesses(hits+misses)
system.cpu3.dcache.demand_accesses::cpu3.data      8300540                       # number of demand (read+write) accesses
system.cpu3.dcache.demand_accesses::total      8300540                       # number of demand (read+write) accesses
system.cpu3.dcache.overall_accesses::cpu3.data      8300669                       # number of overall (read+write) accesses
system.cpu3.dcache.overall_accesses::total      8300669                       # number of overall (read+write) accesses
system.cpu3.dcache.ReadReq_miss_rate::cpu3.data     0.002868                       # miss rate for ReadReq accesses
system.cpu3.dcache.ReadReq_miss_rate::total     0.002868                       # miss rate for ReadReq accesses
system.cpu3.dcache.WriteReq_miss_rate::cpu3.data     0.001465                       # miss rate for WriteReq accesses
system.cpu3.dcache.WriteReq_miss_rate::total     0.001465                       # miss rate for WriteReq accesses
system.cpu3.dcache.SoftPFReq_miss_rate::cpu3.data     0.395349                       # miss rate for SoftPFReq accesses
system.cpu3.dcache.SoftPFReq_miss_rate::total     0.395349                       # miss rate for SoftPFReq accesses
system.cpu3.dcache.demand_miss_rate::cpu3.data     0.002462                       # miss rate for demand accesses
system.cpu3.dcache.demand_miss_rate::total     0.002462                       # miss rate for demand accesses
system.cpu3.dcache.overall_miss_rate::cpu3.data     0.002468                       # miss rate for overall accesses
system.cpu3.dcache.overall_miss_rate::total     0.002468                       # miss rate for overall accesses
system.cpu3.dcache.blocked_cycles::no_mshrs            0                       # number of cycles access was blocked
system.cpu3.dcache.blocked_cycles::no_targets            0                       # number of cycles access was blocked
system.cpu3.dcache.blocked::no_mshrs                0                       # number of cycles access was blocked
system.cpu3.dcache.blocked::no_targets              0                       # number of cycles access was blocked
system.cpu3.dcache.avg_blocked_cycles::no_mshrs          nan                       # average number of cycles each access was blocked
system.cpu3.dcache.avg_blocked_cycles::no_targets          nan                       # average number of cycles each access was blocked
system.cpu3.dcache.fast_writes                      0                       # number of fast writes performed
system.cpu3.dcache.cache_copies                     0                       # number of cache copies performed
system.cpu3.dcache.writebacks::writebacks         2975                       # number of writebacks
system.cpu3.dcache.writebacks::total             2975                       # number of writebacks
system.cpu3.dcache.no_allocate_misses               0                       # Number of misses that were no-allocate
system.iocache.tags.replacements                 4159                       # number of replacements
system.iocache.tags.tagsinuse                      16                       # Cycle average of tags in use
system.iocache.tags.total_refs                      0                       # Total number of references to valid blocks.
system.iocache.tags.sampled_refs                 4175                       # Sample count of references to valid blocks.
system.iocache.tags.avg_refs                        0                       # Average number of references to valid blocks.
system.iocache.tags.warmup_cycle                    0                       # Cycle when the warmup percentage was hit.
system.iocache.tags.occ_blocks::pc.south_bridge.ide           16                       # Average occupied blocks per requestor
system.iocache.tags.occ_percent::pc.south_bridge.ide            1                       # Average percentage of cache occupancy
system.iocache.tags.occ_percent::total              1                       # Average percentage of cache occupancy
system.iocache.tags.occ_task_id_blocks::1023           16                       # Occupied blocks per task id
system.iocache.tags.age_task_id_blocks_1023::4           16                       # Occupied blocks per task id
system.iocache.tags.occ_task_id_percent::1023            1                       # Percentage of cache occupancy per task id
system.iocache.tags.tag_accesses                37431                       # Number of tag accesses
system.iocache.tags.data_accesses               37431                       # Number of data accesses
system.iocache.WriteInvalidateReq_hits::pc.south_bridge.ide         4096                       # number of WriteInvalidateReq hits
system.iocache.WriteInvalidateReq_hits::total         4096                       # number of WriteInvalidateReq hits
system.iocache.ReadReq_misses::pc.south_bridge.ide           63                       # number of ReadReq misses
system.iocache.ReadReq_misses::total               63                       # number of ReadReq misses
system.iocache.demand_misses::pc.south_bridge.ide           63                       # number of demand (read+write) misses
system.iocache.demand_misses::total                63                       # number of demand (read+write) misses
system.iocache.overall_misses::pc.south_bridge.ide           63                       # number of overall misses
system.iocache.overall_misses::total               63                       # number of overall misses
system.iocache.ReadReq_accesses::pc.south_bridge.ide           63                       # number of ReadReq accesses(hits+misses)
system.iocache.ReadReq_accesses::total             63                       # number of ReadReq accesses(hits+misses)
system.iocache.WriteInvalidateReq_accesses::pc.south_bridge.ide         4096                       # number of WriteInvalidateReq accesses(hits+misses)
system.iocache.WriteInvalidateReq_accesses::total         4096                       # number of WriteInvalidateReq accesses(hits+misses)
system.iocache.demand_accesses::pc.south_bridge.ide           63                       # number of demand (read+write) accesses
system.iocache.demand_accesses::total              63                       # number of demand (read+write) accesses
system.iocache.overall_accesses::pc.south_bridge.ide           63                       # number of overall (read+write) accesses
system.iocache.overall_accesses::total             63                       # number of overall (read+write) accesses
system.iocache.ReadReq_miss_rate::pc.south_bridge.ide            1                       # miss rate for ReadReq accesses
system.iocache.ReadReq_miss_rate::total             1                       # miss rate for ReadReq accesses
system.iocache.demand_miss_rate::pc.south_bridge.ide            1                       # miss rate for demand accesses
system.iocache.demand_miss_rate::total              1                       # miss rate for demand accesses
system.iocache.overall_miss_rate::pc.south_bridge.ide            1                       # miss rate for overall accesses
system.iocache.overall_miss_rate::total             1                       # miss rate for overall accesses
system.iocache.blocked_cycles::no_mshrs             0                       # number of cycles access was blocked
system.iocache.blocked_cycles::no_targets            0                       # number of cycles access was blocked
system.iocache.blocked::no_mshrs                    0                       # number of cycles access was blocked
system.iocache.blocked::no_targets                  0                       # number of cycles access was blocked
system.iocache.avg_blocked_cycles::no_mshrs          nan                       # average number of cycles each access was blocked
system.iocache.avg_blocked_cycles::no_targets          nan                       # average number of cycles each access was blocked
system.iocache.fast_writes                       4096                       # number of fast writes performed
system.iocache.cache_copies                         0                       # number of cache copies performed
system.iocache.no_allocate_misses                   0                       # Number of misses that were no-allocate

---------- End Simulation Statistics   ----------
