
---------- Begin Simulation Statistics ----------
sim_seconds                               1449.993092                       # Number of seconds simulated
sim_ticks                                1449993092414000                       # Number of ticks simulated
final_tick                               1454839446395000                       # Number of ticks from beginning of simulation (restored from checkpoints and never reset)
sim_freq                                 1000000000000                       # Frequency of simulated ticks
host_inst_rate                                 166785                       # Simulator instruction rate (inst/s)
host_op_rate                                   344719                       # Simulator op (including micro ops) rate (op/s)
host_tick_rate                           171504436126                       # Simulator tick rate (ticks/s)
host_mem_usage                                 878996                       # Number of bytes of host memory used
host_seconds                                  8454.55                       # Real time elapsed on the host
sim_insts                                  1410096344                       # Number of instructions simulated
sim_ops                                    2914446753                       # Number of ops (including micro ops) simulated
system.voltage_domain.voltage                       1                       # Voltage in Volts
system.clk_domain.clock                          1000                       # Clock period in ticks
system.mem_ctrls.bytes_read::switch_cpus0.dtb.walker          704                       # Number of bytes read from this memory
system.mem_ctrls.bytes_read::switch_cpus0.itb.walker          192                       # Number of bytes read from this memory
system.mem_ctrls.bytes_read::switch_cpus0.inst        41664                       # Number of bytes read from this memory
system.mem_ctrls.bytes_read::switch_cpus0.data        31040                       # Number of bytes read from this memory
system.mem_ctrls.bytes_read::switch_cpus1.dtb.walker          256                       # Number of bytes read from this memory
system.mem_ctrls.bytes_read::switch_cpus1.itb.walker          256                       # Number of bytes read from this memory
system.mem_ctrls.bytes_read::switch_cpus1.inst         4160                       # Number of bytes read from this memory
system.mem_ctrls.bytes_read::switch_cpus1.data         5888                       # Number of bytes read from this memory
system.mem_ctrls.bytes_read::switch_cpus2.dtb.walker          192                       # Number of bytes read from this memory
system.mem_ctrls.bytes_read::switch_cpus2.inst         6144                       # Number of bytes read from this memory
system.mem_ctrls.bytes_read::switch_cpus2.data         6784                       # Number of bytes read from this memory
system.mem_ctrls.bytes_read::switch_cpus3.dtb.walker         2240                       # Number of bytes read from this memory
system.mem_ctrls.bytes_read::switch_cpus3.itb.walker         1280                       # Number of bytes read from this memory
system.mem_ctrls.bytes_read::switch_cpus3.inst        82816                       # Number of bytes read from this memory
system.mem_ctrls.bytes_read::switch_cpus3.data        69440                       # Number of bytes read from this memory
system.mem_ctrls.bytes_read::cpu1.inst            192                       # Number of bytes read from this memory
system.mem_ctrls.bytes_read::cpu1.data            192                       # Number of bytes read from this memory
system.mem_ctrls.bytes_read::cpu2.inst            192                       # Number of bytes read from this memory
system.mem_ctrls.bytes_read::cpu2.data            128                       # Number of bytes read from this memory
system.mem_ctrls.bytes_read::cpu3.inst            320                       # Number of bytes read from this memory
system.mem_ctrls.bytes_read::cpu3.data            192                       # Number of bytes read from this memory
system.mem_ctrls.bytes_read::total             254272                       # Number of bytes read from this memory
system.mem_ctrls.bytes_inst_read::switch_cpus0.inst        41664                       # Number of instructions bytes read from this memory
system.mem_ctrls.bytes_inst_read::switch_cpus1.inst         4160                       # Number of instructions bytes read from this memory
system.mem_ctrls.bytes_inst_read::switch_cpus2.inst         6144                       # Number of instructions bytes read from this memory
system.mem_ctrls.bytes_inst_read::switch_cpus3.inst        82816                       # Number of instructions bytes read from this memory
system.mem_ctrls.bytes_inst_read::cpu1.inst          192                       # Number of instructions bytes read from this memory
system.mem_ctrls.bytes_inst_read::cpu2.inst          192                       # Number of instructions bytes read from this memory
system.mem_ctrls.bytes_inst_read::cpu3.inst          320                       # Number of instructions bytes read from this memory
system.mem_ctrls.bytes_inst_read::total        135488                       # Number of instructions bytes read from this memory
system.mem_ctrls.num_reads::switch_cpus0.dtb.walker           11                       # Number of read requests responded to by this memory
system.mem_ctrls.num_reads::switch_cpus0.itb.walker            3                       # Number of read requests responded to by this memory
system.mem_ctrls.num_reads::switch_cpus0.inst          651                       # Number of read requests responded to by this memory
system.mem_ctrls.num_reads::switch_cpus0.data          485                       # Number of read requests responded to by this memory
system.mem_ctrls.num_reads::switch_cpus1.dtb.walker            4                       # Number of read requests responded to by this memory
system.mem_ctrls.num_reads::switch_cpus1.itb.walker            4                       # Number of read requests responded to by this memory
system.mem_ctrls.num_reads::switch_cpus1.inst           65                       # Number of read requests responded to by this memory
system.mem_ctrls.num_reads::switch_cpus1.data           92                       # Number of read requests responded to by this memory
system.mem_ctrls.num_reads::switch_cpus2.dtb.walker            3                       # Number of read requests responded to by this memory
system.mem_ctrls.num_reads::switch_cpus2.inst           96                       # Number of read requests responded to by this memory
system.mem_ctrls.num_reads::switch_cpus2.data          106                       # Number of read requests responded to by this memory
system.mem_ctrls.num_reads::switch_cpus3.dtb.walker           35                       # Number of read requests responded to by this memory
system.mem_ctrls.num_reads::switch_cpus3.itb.walker           20                       # Number of read requests responded to by this memory
system.mem_ctrls.num_reads::switch_cpus3.inst         1294                       # Number of read requests responded to by this memory
system.mem_ctrls.num_reads::switch_cpus3.data         1085                       # Number of read requests responded to by this memory
system.mem_ctrls.num_reads::cpu1.inst               3                       # Number of read requests responded to by this memory
system.mem_ctrls.num_reads::cpu1.data               3                       # Number of read requests responded to by this memory
system.mem_ctrls.num_reads::cpu2.inst               3                       # Number of read requests responded to by this memory
system.mem_ctrls.num_reads::cpu2.data               2                       # Number of read requests responded to by this memory
system.mem_ctrls.num_reads::cpu3.inst               5                       # Number of read requests responded to by this memory
system.mem_ctrls.num_reads::cpu3.data               3                       # Number of read requests responded to by this memory
system.mem_ctrls.num_reads::total                3973                       # Number of read requests responded to by this memory
system.mem_ctrls.bw_read::switch_cpus0.dtb.walker            0                       # Total read bandwidth from this memory (bytes/s)
system.mem_ctrls.bw_read::switch_cpus0.itb.walker            0                       # Total read bandwidth from this memory (bytes/s)
system.mem_ctrls.bw_read::switch_cpus0.inst           29                       # Total read bandwidth from this memory (bytes/s)
system.mem_ctrls.bw_read::switch_cpus0.data           21                       # Total read bandwidth from this memory (bytes/s)
system.mem_ctrls.bw_read::switch_cpus1.dtb.walker            0                       # Total read bandwidth from this memory (bytes/s)
system.mem_ctrls.bw_read::switch_cpus1.itb.walker            0                       # Total read bandwidth from this memory (bytes/s)
system.mem_ctrls.bw_read::switch_cpus1.inst            3                       # Total read bandwidth from this memory (bytes/s)
system.mem_ctrls.bw_read::switch_cpus1.data            4                       # Total read bandwidth from this memory (bytes/s)
system.mem_ctrls.bw_read::switch_cpus2.dtb.walker            0                       # Total read bandwidth from this memory (bytes/s)
system.mem_ctrls.bw_read::switch_cpus2.inst            4                       # Total read bandwidth from this memory (bytes/s)
system.mem_ctrls.bw_read::switch_cpus2.data            5                       # Total read bandwidth from this memory (bytes/s)
system.mem_ctrls.bw_read::switch_cpus3.dtb.walker            2                       # Total read bandwidth from this memory (bytes/s)
system.mem_ctrls.bw_read::switch_cpus3.itb.walker            1                       # Total read bandwidth from this memory (bytes/s)
system.mem_ctrls.bw_read::switch_cpus3.inst           57                       # Total read bandwidth from this memory (bytes/s)
system.mem_ctrls.bw_read::switch_cpus3.data           48                       # Total read bandwidth from this memory (bytes/s)
system.mem_ctrls.bw_read::cpu1.inst                 0                       # Total read bandwidth from this memory (bytes/s)
system.mem_ctrls.bw_read::cpu1.data                 0                       # Total read bandwidth from this memory (bytes/s)
system.mem_ctrls.bw_read::cpu2.inst                 0                       # Total read bandwidth from this memory (bytes/s)
system.mem_ctrls.bw_read::cpu2.data                 0                       # Total read bandwidth from this memory (bytes/s)
system.mem_ctrls.bw_read::cpu3.inst                 0                       # Total read bandwidth from this memory (bytes/s)
system.mem_ctrls.bw_read::cpu3.data                 0                       # Total read bandwidth from this memory (bytes/s)
system.mem_ctrls.bw_read::total                   175                       # Total read bandwidth from this memory (bytes/s)
system.mem_ctrls.bw_inst_read::switch_cpus0.inst           29                       # Instruction read bandwidth from this memory (bytes/s)
system.mem_ctrls.bw_inst_read::switch_cpus1.inst            3                       # Instruction read bandwidth from this memory (bytes/s)
system.mem_ctrls.bw_inst_read::switch_cpus2.inst            4                       # Instruction read bandwidth from this memory (bytes/s)
system.mem_ctrls.bw_inst_read::switch_cpus3.inst           57                       # Instruction read bandwidth from this memory (bytes/s)
system.mem_ctrls.bw_inst_read::cpu1.inst            0                       # Instruction read bandwidth from this memory (bytes/s)
system.mem_ctrls.bw_inst_read::cpu2.inst            0                       # Instruction read bandwidth from this memory (bytes/s)
system.mem_ctrls.bw_inst_read::cpu3.inst            0                       # Instruction read bandwidth from this memory (bytes/s)
system.mem_ctrls.bw_inst_read::total               93                       # Instruction read bandwidth from this memory (bytes/s)
system.mem_ctrls.bw_total::switch_cpus0.dtb.walker            0                       # Total bandwidth to/from this memory (bytes/s)
system.mem_ctrls.bw_total::switch_cpus0.itb.walker            0                       # Total bandwidth to/from this memory (bytes/s)
system.mem_ctrls.bw_total::switch_cpus0.inst           29                       # Total bandwidth to/from this memory (bytes/s)
system.mem_ctrls.bw_total::switch_cpus0.data           21                       # Total bandwidth to/from this memory (bytes/s)
system.mem_ctrls.bw_total::switch_cpus1.dtb.walker            0                       # Total bandwidth to/from this memory (bytes/s)
system.mem_ctrls.bw_total::switch_cpus1.itb.walker            0                       # Total bandwidth to/from this memory (bytes/s)
system.mem_ctrls.bw_total::switch_cpus1.inst            3                       # Total bandwidth to/from this memory (bytes/s)
system.mem_ctrls.bw_total::switch_cpus1.data            4                       # Total bandwidth to/from this memory (bytes/s)
system.mem_ctrls.bw_total::switch_cpus2.dtb.walker            0                       # Total bandwidth to/from this memory (bytes/s)
system.mem_ctrls.bw_total::switch_cpus2.inst            4                       # Total bandwidth to/from this memory (bytes/s)
system.mem_ctrls.bw_total::switch_cpus2.data            5                       # Total bandwidth to/from this memory (bytes/s)
system.mem_ctrls.bw_total::switch_cpus3.dtb.walker            2                       # Total bandwidth to/from this memory (bytes/s)
system.mem_ctrls.bw_total::switch_cpus3.itb.walker            1                       # Total bandwidth to/from this memory (bytes/s)
system.mem_ctrls.bw_total::switch_cpus3.inst           57                       # Total bandwidth to/from this memory (bytes/s)
system.mem_ctrls.bw_total::switch_cpus3.data           48                       # Total bandwidth to/from this memory (bytes/s)
system.mem_ctrls.bw_total::cpu1.inst                0                       # Total bandwidth to/from this memory (bytes/s)
system.mem_ctrls.bw_total::cpu1.data                0                       # Total bandwidth to/from this memory (bytes/s)
system.mem_ctrls.bw_total::cpu2.inst                0                       # Total bandwidth to/from this memory (bytes/s)
system.mem_ctrls.bw_total::cpu2.data                0                       # Total bandwidth to/from this memory (bytes/s)
system.mem_ctrls.bw_total::cpu3.inst                0                       # Total bandwidth to/from this memory (bytes/s)
system.mem_ctrls.bw_total::cpu3.data                0                       # Total bandwidth to/from this memory (bytes/s)
system.mem_ctrls.bw_total::total                  175                       # Total bandwidth to/from this memory (bytes/s)
system.mem_ctrls.readReqs                        3954                       # Number of read requests accepted
system.mem_ctrls.writeReqs                          0                       # Number of write requests accepted
system.mem_ctrls.readBursts                      3954                       # Number of DRAM read bursts, including those serviced by the write queue
system.mem_ctrls.writeBursts                        0                       # Number of DRAM write bursts, including those merged in the write queue
system.mem_ctrls.bytesReadDRAM                 253056                       # Total number of bytes read from DRAM
system.mem_ctrls.bytesReadWrQ                       0                       # Total number of bytes read from write queue
system.mem_ctrls.bytesWritten                       0                       # Total number of bytes written to DRAM
system.mem_ctrls.bytesReadSys                  253056                       # Total read bytes from the system interface side
system.mem_ctrls.bytesWrittenSys                    0                       # Total written bytes from the system interface side
system.mem_ctrls.servicedByWrQ                      0                       # Number of DRAM read bursts serviced by the write queue
system.mem_ctrls.mergedWrBursts                     0                       # Number of DRAM write bursts merged with an existing one
system.mem_ctrls.neitherReadNorWriteReqs           23                       # Number of requests that are neither read nor write
system.mem_ctrls.perBankRdBursts::0               264                       # Per bank write bursts
system.mem_ctrls.perBankRdBursts::1               322                       # Per bank write bursts
system.mem_ctrls.perBankRdBursts::2               201                       # Per bank write bursts
system.mem_ctrls.perBankRdBursts::3               132                       # Per bank write bursts
system.mem_ctrls.perBankRdBursts::4               164                       # Per bank write bursts
system.mem_ctrls.perBankRdBursts::5               260                       # Per bank write bursts
system.mem_ctrls.perBankRdBursts::6               334                       # Per bank write bursts
system.mem_ctrls.perBankRdBursts::7               336                       # Per bank write bursts
system.mem_ctrls.perBankRdBursts::8               238                       # Per bank write bursts
system.mem_ctrls.perBankRdBursts::9               295                       # Per bank write bursts
system.mem_ctrls.perBankRdBursts::10              252                       # Per bank write bursts
system.mem_ctrls.perBankRdBursts::11              135                       # Per bank write bursts
system.mem_ctrls.perBankRdBursts::12              341                       # Per bank write bursts
system.mem_ctrls.perBankRdBursts::13              270                       # Per bank write bursts
system.mem_ctrls.perBankRdBursts::14              182                       # Per bank write bursts
system.mem_ctrls.perBankRdBursts::15              228                       # Per bank write bursts
system.mem_ctrls.perBankWrBursts::0                 0                       # Per bank write bursts
system.mem_ctrls.perBankWrBursts::1                 0                       # Per bank write bursts
system.mem_ctrls.perBankWrBursts::2                 0                       # Per bank write bursts
system.mem_ctrls.perBankWrBursts::3                 0                       # Per bank write bursts
system.mem_ctrls.perBankWrBursts::4                 0                       # Per bank write bursts
system.mem_ctrls.perBankWrBursts::5                 0                       # Per bank write bursts
system.mem_ctrls.perBankWrBursts::6                 0                       # Per bank write bursts
system.mem_ctrls.perBankWrBursts::7                 0                       # Per bank write bursts
system.mem_ctrls.perBankWrBursts::8                 0                       # Per bank write bursts
system.mem_ctrls.perBankWrBursts::9                 0                       # Per bank write bursts
system.mem_ctrls.perBankWrBursts::10                0                       # Per bank write bursts
system.mem_ctrls.perBankWrBursts::11                0                       # Per bank write bursts
system.mem_ctrls.perBankWrBursts::12                0                       # Per bank write bursts
system.mem_ctrls.perBankWrBursts::13                0                       # Per bank write bursts
system.mem_ctrls.perBankWrBursts::14                0                       # Per bank write bursts
system.mem_ctrls.perBankWrBursts::15                0                       # Per bank write bursts
system.mem_ctrls.numRdRetry                         0                       # Number of times read queue was full causing retry
system.mem_ctrls.numWrRetry                         0                       # Number of times write queue was full causing retry
system.mem_ctrls.totGap                   37122744500                       # Total gap between requests
system.mem_ctrls.readPktSize::0                     0                       # Read request sizes (log2)
system.mem_ctrls.readPktSize::1                     0                       # Read request sizes (log2)
system.mem_ctrls.readPktSize::2                     0                       # Read request sizes (log2)
system.mem_ctrls.readPktSize::3                     0                       # Read request sizes (log2)
system.mem_ctrls.readPktSize::4                     0                       # Read request sizes (log2)
system.mem_ctrls.readPktSize::5                     0                       # Read request sizes (log2)
system.mem_ctrls.readPktSize::6                  3954                       # Read request sizes (log2)
system.mem_ctrls.writePktSize::0                    0                       # Write request sizes (log2)
system.mem_ctrls.writePktSize::1                    0                       # Write request sizes (log2)
system.mem_ctrls.writePktSize::2                    0                       # Write request sizes (log2)
system.mem_ctrls.writePktSize::3                    0                       # Write request sizes (log2)
system.mem_ctrls.writePktSize::4                    0                       # Write request sizes (log2)
system.mem_ctrls.writePktSize::5                    0                       # Write request sizes (log2)
system.mem_ctrls.writePktSize::6                    0                       # Write request sizes (log2)
system.mem_ctrls.rdQLenPdf::0                    2299                       # What read queue length does an incoming req see
system.mem_ctrls.rdQLenPdf::1                    1070                       # What read queue length does an incoming req see
system.mem_ctrls.rdQLenPdf::2                     366                       # What read queue length does an incoming req see
system.mem_ctrls.rdQLenPdf::3                     131                       # What read queue length does an incoming req see
system.mem_ctrls.rdQLenPdf::4                      50                       # What read queue length does an incoming req see
system.mem_ctrls.rdQLenPdf::5                      21                       # What read queue length does an incoming req see
system.mem_ctrls.rdQLenPdf::6                      12                       # What read queue length does an incoming req see
system.mem_ctrls.rdQLenPdf::7                       5                       # What read queue length does an incoming req see
system.mem_ctrls.rdQLenPdf::8                       0                       # What read queue length does an incoming req see
system.mem_ctrls.rdQLenPdf::9                       0                       # What read queue length does an incoming req see
system.mem_ctrls.rdQLenPdf::10                      0                       # What read queue length does an incoming req see
system.mem_ctrls.rdQLenPdf::11                      0                       # What read queue length does an incoming req see
system.mem_ctrls.rdQLenPdf::12                      0                       # What read queue length does an incoming req see
system.mem_ctrls.rdQLenPdf::13                      0                       # What read queue length does an incoming req see
system.mem_ctrls.rdQLenPdf::14                      0                       # What read queue length does an incoming req see
system.mem_ctrls.rdQLenPdf::15                      0                       # What read queue length does an incoming req see
system.mem_ctrls.rdQLenPdf::16                      0                       # What read queue length does an incoming req see
system.mem_ctrls.rdQLenPdf::17                      0                       # What read queue length does an incoming req see
system.mem_ctrls.rdQLenPdf::18                      0                       # What read queue length does an incoming req see
system.mem_ctrls.rdQLenPdf::19                      0                       # What read queue length does an incoming req see
system.mem_ctrls.rdQLenPdf::20                      0                       # What read queue length does an incoming req see
system.mem_ctrls.rdQLenPdf::21                      0                       # What read queue length does an incoming req see
system.mem_ctrls.rdQLenPdf::22                      0                       # What read queue length does an incoming req see
system.mem_ctrls.rdQLenPdf::23                      0                       # What read queue length does an incoming req see
system.mem_ctrls.rdQLenPdf::24                      0                       # What read queue length does an incoming req see
system.mem_ctrls.rdQLenPdf::25                      0                       # What read queue length does an incoming req see
system.mem_ctrls.rdQLenPdf::26                      0                       # What read queue length does an incoming req see
system.mem_ctrls.rdQLenPdf::27                      0                       # What read queue length does an incoming req see
system.mem_ctrls.rdQLenPdf::28                      0                       # What read queue length does an incoming req see
system.mem_ctrls.rdQLenPdf::29                      0                       # What read queue length does an incoming req see
system.mem_ctrls.rdQLenPdf::30                      0                       # What read queue length does an incoming req see
system.mem_ctrls.rdQLenPdf::31                      0                       # What read queue length does an incoming req see
system.mem_ctrls.wrQLenPdf::0                       0                       # What write queue length does an incoming req see
system.mem_ctrls.wrQLenPdf::1                       0                       # What write queue length does an incoming req see
system.mem_ctrls.wrQLenPdf::2                       0                       # What write queue length does an incoming req see
system.mem_ctrls.wrQLenPdf::3                       0                       # What write queue length does an incoming req see
system.mem_ctrls.wrQLenPdf::4                       0                       # What write queue length does an incoming req see
system.mem_ctrls.wrQLenPdf::5                       0                       # What write queue length does an incoming req see
system.mem_ctrls.wrQLenPdf::6                       0                       # What write queue length does an incoming req see
system.mem_ctrls.wrQLenPdf::7                       0                       # What write queue length does an incoming req see
system.mem_ctrls.wrQLenPdf::8                       0                       # What write queue length does an incoming req see
system.mem_ctrls.wrQLenPdf::9                       0                       # What write queue length does an incoming req see
system.mem_ctrls.wrQLenPdf::10                      0                       # What write queue length does an incoming req see
system.mem_ctrls.wrQLenPdf::11                      0                       # What write queue length does an incoming req see
system.mem_ctrls.wrQLenPdf::12                      0                       # What write queue length does an incoming req see
system.mem_ctrls.wrQLenPdf::13                      0                       # What write queue length does an incoming req see
system.mem_ctrls.wrQLenPdf::14                      0                       # What write queue length does an incoming req see
system.mem_ctrls.wrQLenPdf::15                      0                       # What write queue length does an incoming req see
system.mem_ctrls.wrQLenPdf::16                      0                       # What write queue length does an incoming req see
system.mem_ctrls.wrQLenPdf::17                      0                       # What write queue length does an incoming req see
system.mem_ctrls.wrQLenPdf::18                      0                       # What write queue length does an incoming req see
system.mem_ctrls.wrQLenPdf::19                      0                       # What write queue length does an incoming req see
system.mem_ctrls.wrQLenPdf::20                      0                       # What write queue length does an incoming req see
system.mem_ctrls.wrQLenPdf::21                      0                       # What write queue length does an incoming req see
system.mem_ctrls.wrQLenPdf::22                      0                       # What write queue length does an incoming req see
system.mem_ctrls.wrQLenPdf::23                      0                       # What write queue length does an incoming req see
system.mem_ctrls.wrQLenPdf::24                      0                       # What write queue length does an incoming req see
system.mem_ctrls.wrQLenPdf::25                      0                       # What write queue length does an incoming req see
system.mem_ctrls.wrQLenPdf::26                      0                       # What write queue length does an incoming req see
system.mem_ctrls.wrQLenPdf::27                      0                       # What write queue length does an incoming req see
system.mem_ctrls.wrQLenPdf::28                      0                       # What write queue length does an incoming req see
system.mem_ctrls.wrQLenPdf::29                      0                       # What write queue length does an incoming req see
system.mem_ctrls.wrQLenPdf::30                      0                       # What write queue length does an incoming req see
system.mem_ctrls.wrQLenPdf::31                      0                       # What write queue length does an incoming req see
system.mem_ctrls.wrQLenPdf::32                      0                       # What write queue length does an incoming req see
system.mem_ctrls.wrQLenPdf::33                      0                       # What write queue length does an incoming req see
system.mem_ctrls.wrQLenPdf::34                      0                       # What write queue length does an incoming req see
system.mem_ctrls.wrQLenPdf::35                      0                       # What write queue length does an incoming req see
system.mem_ctrls.wrQLenPdf::36                      0                       # What write queue length does an incoming req see
system.mem_ctrls.wrQLenPdf::37                      0                       # What write queue length does an incoming req see
system.mem_ctrls.wrQLenPdf::38                      0                       # What write queue length does an incoming req see
system.mem_ctrls.wrQLenPdf::39                      0                       # What write queue length does an incoming req see
system.mem_ctrls.wrQLenPdf::40                      0                       # What write queue length does an incoming req see
system.mem_ctrls.wrQLenPdf::41                      0                       # What write queue length does an incoming req see
system.mem_ctrls.wrQLenPdf::42                      0                       # What write queue length does an incoming req see
system.mem_ctrls.wrQLenPdf::43                      0                       # What write queue length does an incoming req see
system.mem_ctrls.wrQLenPdf::44                      0                       # What write queue length does an incoming req see
system.mem_ctrls.wrQLenPdf::45                      0                       # What write queue length does an incoming req see
system.mem_ctrls.wrQLenPdf::46                      0                       # What write queue length does an incoming req see
system.mem_ctrls.wrQLenPdf::47                      0                       # What write queue length does an incoming req see
system.mem_ctrls.wrQLenPdf::48                      0                       # What write queue length does an incoming req see
system.mem_ctrls.wrQLenPdf::49                      0                       # What write queue length does an incoming req see
system.mem_ctrls.wrQLenPdf::50                      0                       # What write queue length does an incoming req see
system.mem_ctrls.wrQLenPdf::51                      0                       # What write queue length does an incoming req see
system.mem_ctrls.wrQLenPdf::52                      0                       # What write queue length does an incoming req see
system.mem_ctrls.wrQLenPdf::53                      0                       # What write queue length does an incoming req see
system.mem_ctrls.wrQLenPdf::54                      0                       # What write queue length does an incoming req see
system.mem_ctrls.wrQLenPdf::55                      0                       # What write queue length does an incoming req see
system.mem_ctrls.wrQLenPdf::56                      0                       # What write queue length does an incoming req see
system.mem_ctrls.wrQLenPdf::57                      0                       # What write queue length does an incoming req see
system.mem_ctrls.wrQLenPdf::58                      0                       # What write queue length does an incoming req see
system.mem_ctrls.wrQLenPdf::59                      0                       # What write queue length does an incoming req see
system.mem_ctrls.wrQLenPdf::60                      0                       # What write queue length does an incoming req see
system.mem_ctrls.wrQLenPdf::61                      0                       # What write queue length does an incoming req see
system.mem_ctrls.wrQLenPdf::62                      0                       # What write queue length does an incoming req see
system.mem_ctrls.wrQLenPdf::63                      0                       # What write queue length does an incoming req see
system.mem_ctrls.bytesPerActivate::samples         1412                       # Bytes accessed per row activation
system.mem_ctrls.bytesPerActivate::mean    179.218130                       # Bytes accessed per row activation
system.mem_ctrls.bytesPerActivate::gmean   119.771974                       # Bytes accessed per row activation
system.mem_ctrls.bytesPerActivate::stdev   212.705805                       # Bytes accessed per row activation
system.mem_ctrls.bytesPerActivate::0-127          733     51.91%     51.91% # Bytes accessed per row activation
system.mem_ctrls.bytesPerActivate::128-255          388     27.48%     79.39% # Bytes accessed per row activation
system.mem_ctrls.bytesPerActivate::256-383          121      8.57%     87.96% # Bytes accessed per row activation
system.mem_ctrls.bytesPerActivate::384-511           52      3.68%     91.64% # Bytes accessed per row activation
system.mem_ctrls.bytesPerActivate::512-639           34      2.41%     94.05% # Bytes accessed per row activation
system.mem_ctrls.bytesPerActivate::640-767           16      1.13%     95.18% # Bytes accessed per row activation
system.mem_ctrls.bytesPerActivate::768-895           17      1.20%     96.39% # Bytes accessed per row activation
system.mem_ctrls.bytesPerActivate::896-1023           12      0.85%     97.24% # Bytes accessed per row activation
system.mem_ctrls.bytesPerActivate::1024-1151           39      2.76%    100.00% # Bytes accessed per row activation
system.mem_ctrls.bytesPerActivate::total         1412                       # Bytes accessed per row activation
system.mem_ctrls.totQLat                     58457750                       # Total ticks spent queuing
system.mem_ctrls.totMemAccLat               132595250                       # Total ticks spent from burst creation until serviced by the DRAM
system.mem_ctrls.totBusLat                   19770000                       # Total ticks spent in databus transfers
system.mem_ctrls.avgQLat                     14784.46                       # Average queueing delay per DRAM burst
system.mem_ctrls.avgBusLat                    5000.00                       # Average bus latency per DRAM burst
system.mem_ctrls.avgMemAccLat                33534.46                       # Average memory access latency per DRAM burst
system.mem_ctrls.avgRdBW                         0.00                       # Average DRAM read bandwidth in MiByte/s
system.mem_ctrls.avgWrBW                         0.00                       # Average achieved write bandwidth in MiByte/s
system.mem_ctrls.avgRdBWSys                      0.00                       # Average system read bandwidth in MiByte/s
system.mem_ctrls.avgWrBWSys                      0.00                       # Average system write bandwidth in MiByte/s
system.mem_ctrls.peakBW                      12800.00                       # Theoretical peak bandwidth in MiByte/s
system.mem_ctrls.busUtil                         0.00                       # Data bus utilization in percentage
system.mem_ctrls.busUtilRead                     0.00                       # Data bus utilization in percentage for reads
system.mem_ctrls.busUtilWrite                    0.00                       # Data bus utilization in percentage for writes
system.mem_ctrls.avgRdQLen                       2.00                       # Average read queue length when enqueuing
system.mem_ctrls.avgWrQLen                       0.00                       # Average write queue length when enqueuing
system.mem_ctrls.readRowHits                     2542                       # Number of row buffer hits during reads
system.mem_ctrls.writeRowHits                       0                       # Number of row buffer hits during writes
system.mem_ctrls.readRowHitRate                 64.29                       # Row buffer hit rate for reads
system.mem_ctrls.writeRowHitRate                  nan                       # Row buffer hit rate for writes
system.mem_ctrls.avgGap                    9388655.67                       # Average gap between requests
system.mem_ctrls.pageHitRate                    64.29                       # Row buffer hit rate, read and write combined
system.mem_ctrls.memoryStateTime::IDLE   1401574363080750                       # Time in different power states
system.mem_ctrls.memoryStateTime::REF    48418456060000                       # Time in different power states
system.mem_ctrls.memoryStateTime::PRE_PDN            0                       # Time in different power states
system.mem_ctrls.memoryStateTime::ACT       271493000                       # Time in different power states
system.mem_ctrls.memoryStateTime::ACT_PDN            0                       # Time in different power states
system.mem_ctrls.actEnergy::0                 5511240                       # Energy for activate commands per rank (pJ)
system.mem_ctrls.actEnergy::1                 5163480                       # Energy for activate commands per rank (pJ)
system.mem_ctrls.preEnergy::0                 3007125                       # Energy for precharge commands per rank (pJ)
system.mem_ctrls.preEnergy::1                 2817375                       # Energy for precharge commands per rank (pJ)
system.mem_ctrls.readEnergy::0               15701400                       # Energy for read commands per rank (pJ)
system.mem_ctrls.readEnergy::1               15139800                       # Energy for read commands per rank (pJ)
system.mem_ctrls.writeEnergy::0                     0                       # Energy for write commands per rank (pJ)
system.mem_ctrls.writeEnergy::1                     0                       # Energy for write commands per rank (pJ)
system.mem_ctrls.refreshEnergy::0        94706500053360                       # Energy for refresh commands per rank (pJ)
system.mem_ctrls.refreshEnergy::1        94706500053360                       # Energy for refresh commands per rank (pJ)
system.mem_ctrls.actBackEnergy::0        31366943577180                       # Energy for active background per rank (pJ)
system.mem_ctrls.actBackEnergy::1        31366956353445                       # Energy for active background per rank (pJ)
system.mem_ctrls.preBackEnergy::0        842480991585000                       # Energy for precharge background per rank (pJ)
system.mem_ctrls.preBackEnergy::1        842480980377750                       # Energy for precharge background per rank (pJ)
system.mem_ctrls.totalEnergy::0          968554459435305                       # Total energy per rank (pJ)
system.mem_ctrls.totalEnergy::1          968554459905210                       # Total energy per rank (pJ)
system.mem_ctrls.averagePower::0           667.971776                       # Core power per rank (mW)
system.mem_ctrls.averagePower::1           667.971776                       # Core power per rank (mW)
system.membus.trans_dist::ReadReq                3648                       # Transaction distribution
system.membus.trans_dist::ReadResp               3648                       # Transaction distribution
system.membus.trans_dist::WriteReq            1087801                       # Transaction distribution
system.membus.trans_dist::WriteResp           1087801                       # Transaction distribution
system.membus.trans_dist::UpgradeReq              126                       # Transaction distribution
system.membus.trans_dist::UpgradeResp              23                       # Transaction distribution
system.membus.trans_dist::ReadExReq               638                       # Transaction distribution
system.membus.trans_dist::ReadExResp              638                       # Transaction distribution
system.membus.trans_dist::MessageReq                5                       # Transaction distribution
system.membus.trans_dist::MessageResp               5                       # Transaction distribution
system.membus.pkt_count_system.apicbridge.master::system.cpu0.interrupts.int_slave            2                       # Packet count per connected master and slave (bytes)
system.membus.pkt_count_system.apicbridge.master::system.cpu3.interrupts.int_slave            2                       # Packet count per connected master and slave (bytes)
system.membus.pkt_count_system.apicbridge.master::total            4                       # Packet count per connected master and slave (bytes)
system.membus.pkt_count_system.l2.mem_side::system.bridge.slave          858                       # Packet count per connected master and slave (bytes)
system.membus.pkt_count_system.l2.mem_side::system.cpu0.interrupts.pio            6                       # Packet count per connected master and slave (bytes)
system.membus.pkt_count_system.l2.mem_side::system.cpu1.interrupts.pio       725114                       # Packet count per connected master and slave (bytes)
system.membus.pkt_count_system.l2.mem_side::system.cpu2.interrupts.pio       725116                       # Packet count per connected master and slave (bytes)
system.membus.pkt_count_system.l2.mem_side::system.cpu3.interrupts.pio       725134                       # Packet count per connected master and slave (bytes)
system.membus.pkt_count_system.l2.mem_side::system.mem_ctrls.port         8095                       # Packet count per connected master and slave (bytes)
system.membus.pkt_count_system.l2.mem_side::total      2184323                       # Packet count per connected master and slave (bytes)
system.membus.pkt_count_system.cpu3.interrupts.int_master::system.cpu0.interrupts.int_slave            4                       # Packet count per connected master and slave (bytes)
system.membus.pkt_count_system.cpu3.interrupts.int_master::system.cpu1.interrupts.int_slave            2                       # Packet count per connected master and slave (bytes)
system.membus.pkt_count_system.cpu3.interrupts.int_master::total            6                       # Packet count per connected master and slave (bytes)
system.membus.pkt_count::total                2184333                       # Packet count per connected master and slave (bytes)
system.membus.pkt_size_system.apicbridge.master::system.cpu0.interrupts.int_slave            4                       # Cumulative packet size per connected master and slave (bytes)
system.membus.pkt_size_system.apicbridge.master::system.cpu3.interrupts.int_slave            4                       # Cumulative packet size per connected master and slave (bytes)
system.membus.pkt_size_system.apicbridge.master::total            8                       # Cumulative packet size per connected master and slave (bytes)
system.membus.pkt_size_system.l2.mem_side::system.bridge.slave          465                       # Cumulative packet size per connected master and slave (bytes)
system.membus.pkt_size_system.l2.mem_side::system.cpu0.interrupts.pio           12                       # Cumulative packet size per connected master and slave (bytes)
system.membus.pkt_size_system.l2.mem_side::system.cpu1.interrupts.pio      1450228                       # Cumulative packet size per connected master and slave (bytes)
system.membus.pkt_size_system.l2.mem_side::system.cpu2.interrupts.pio      1450232                       # Cumulative packet size per connected master and slave (bytes)
system.membus.pkt_size_system.l2.mem_side::system.cpu3.interrupts.pio      1450268                       # Cumulative packet size per connected master and slave (bytes)
system.membus.pkt_size_system.l2.mem_side::system.mem_ctrls.port       254272                       # Cumulative packet size per connected master and slave (bytes)
system.membus.pkt_size_system.l2.mem_side::total      4605477                       # Cumulative packet size per connected master and slave (bytes)
system.membus.pkt_size_system.cpu3.interrupts.int_master::system.cpu0.interrupts.int_slave            8                       # Cumulative packet size per connected master and slave (bytes)
system.membus.pkt_size_system.cpu3.interrupts.int_master::system.cpu1.interrupts.int_slave            4                       # Cumulative packet size per connected master and slave (bytes)
system.membus.pkt_size_system.cpu3.interrupts.int_master::total           12                       # Cumulative packet size per connected master and slave (bytes)
system.membus.pkt_size::total                 4605497                       # Cumulative packet size per connected master and slave (bytes)
system.membus.snoops                              103                       # Total snoops (count)
system.membus.snoop_fanout::samples              4099                       # Request fanout histogram
system.membus.snoop_fanout::mean                    1                       # Request fanout histogram
system.membus.snoop_fanout::stdev                   0                       # Request fanout histogram
system.membus.snoop_fanout::underflows              0      0.00%      0.00% # Request fanout histogram
system.membus.snoop_fanout::0                       0      0.00%      0.00% # Request fanout histogram
system.membus.snoop_fanout::1                    4099    100.00%    100.00% # Request fanout histogram
system.membus.snoop_fanout::2                       0      0.00%    100.00% # Request fanout histogram
system.membus.snoop_fanout::overflows               0      0.00%    100.00% # Request fanout histogram
system.membus.snoop_fanout::min_value               1                       # Request fanout histogram
system.membus.snoop_fanout::max_value               1                       # Request fanout histogram
system.membus.snoop_fanout::total                4099                       # Request fanout histogram
system.membus.reqLayer0.occupancy              702999                       # Layer occupancy (ticks)
system.membus.reqLayer0.utilization               0.0                       # Layer utilization (%)
system.membus.reqLayer1.occupancy                6000                       # Layer occupancy (ticks)
system.membus.reqLayer1.utilization               0.0                       # Layer utilization (%)
system.membus.reqLayer2.occupancy                7000                       # Layer occupancy (ticks)
system.membus.reqLayer2.utilization               0.0                       # Layer utilization (%)
system.membus.reqLayer3.occupancy           906208500                       # Layer occupancy (ticks)
system.membus.reqLayer3.utilization               0.0                       # Layer utilization (%)
system.membus.reqLayer4.occupancy                2500                       # Layer occupancy (ticks)
system.membus.reqLayer4.utilization               0.0                       # Layer utilization (%)
system.membus.reqLayer5.occupancy           906203500                       # Layer occupancy (ticks)
system.membus.reqLayer5.utilization               0.0                       # Layer utilization (%)
system.membus.reqLayer7.occupancy           725318000                       # Layer occupancy (ticks)
system.membus.reqLayer7.utilization               0.0                       # Layer utilization (%)
system.membus.reqLayer8.occupancy                2000                       # Layer occupancy (ticks)
system.membus.reqLayer8.utilization               0.0                       # Layer utilization (%)
system.membus.reqLayer9.occupancy             4846500                       # Layer occupancy (ticks)
system.membus.reqLayer9.utilization               0.0                       # Layer utilization (%)
system.membus.respLayer0.occupancy               2000                       # Layer occupancy (ticks)
system.membus.respLayer0.utilization              0.0                       # Layer utilization (%)
system.membus.respLayer3.occupancy         1487741478                       # Layer occupancy (ticks)
system.membus.respLayer3.utilization              0.0                       # Layer utilization (%)
system.membus.respLayer7.occupancy               4500                       # Layer occupancy (ticks)
system.membus.respLayer7.utilization              0.0                       # Layer utilization (%)
system.switch_cpus0.branchPred.lookups          16294                       # Number of BP lookups
system.switch_cpus0.branchPred.condPredicted        16294                       # Number of conditional branches predicted
system.switch_cpus0.branchPred.condIncorrect         1816                       # Number of conditional branches incorrect
system.switch_cpus0.branchPred.BTBLookups        10636                       # Number of BTB lookups
system.switch_cpus0.branchPred.BTBHits           4962                       # Number of BTB hits
system.switch_cpus0.branchPred.BTBCorrect            0                       # Number of correct BTB predictions (this stat may not work properly.
system.switch_cpus0.branchPred.BTBHitPct    46.652877                       # BTB Hit Percentage
system.switch_cpus0.branchPred.usedRAS           1623                       # Number of times the RAS was used to get a target.
system.switch_cpus0.branchPred.RASInCorrect          277                       # Number of incorrect RAS predictions.
system.cpu_voltage_domain.voltage                   1                       # Voltage in Volts
system.cpu_clk_domain.clock                       500                       # Clock period in ticks
system.switch_cpus0.numCycles                  160261                       # number of cpu cycles simulated
system.switch_cpus0.numWorkItemsStarted             0                       # number of work items this cpu started
system.switch_cpus0.numWorkItemsCompleted            0                       # number of work items this cpu completed
system.switch_cpus0.fetch.icacheStallCycles        34101                       # Number of cycles fetch is stalled on an Icache miss
system.switch_cpus0.fetch.Insts                 83697                       # Number of instructions fetch has processed
system.switch_cpus0.fetch.Branches              16294                       # Number of branches that fetch encountered
system.switch_cpus0.fetch.predictedBranches         6585                       # Number of branches that fetch has predicted taken
system.switch_cpus0.fetch.Cycles                68092                       # Number of cycles fetch has run and was not squashing or blocked
system.switch_cpus0.fetch.SquashCycles           4024                       # Number of cycles fetch has spent squashing
system.switch_cpus0.fetch.TlbCycles              2845                       # Number of cycles fetch has spent waiting for tlb
system.switch_cpus0.fetch.MiscStallCycles          294                       # Number of cycles fetch has spent waiting on interrupts, or bad addresses, or out of MSHRs
system.switch_cpus0.fetch.PendingTrapStallCycles         3111                       # Number of stall cycles due to pending traps
system.switch_cpus0.fetch.PendingQuiesceStallCycles          157                       # Number of stall cycles due to pending quiesce instructions
system.switch_cpus0.fetch.CacheLines            11274                       # Number of cache lines fetched
system.switch_cpus0.fetch.IcacheSquashes          878                       # Number of outstanding Icache misses that were squashed
system.switch_cpus0.fetch.ItlbSquashes             56                       # Number of outstanding ITLB misses that were squashed
system.switch_cpus0.fetch.rateDist::samples       110612                       # Number of instructions fetched each cycle (Total)
system.switch_cpus0.fetch.rateDist::mean     1.361869                       # Number of instructions fetched each cycle (Total)
system.switch_cpus0.fetch.rateDist::stdev     2.792266                       # Number of instructions fetched each cycle (Total)
system.switch_cpus0.fetch.rateDist::underflows            0      0.00%      0.00% # Number of instructions fetched each cycle (Total)
system.switch_cpus0.fetch.rateDist::0           85779     77.55%     77.55% # Number of instructions fetched each cycle (Total)
system.switch_cpus0.fetch.rateDist::1            2155      1.95%     79.50% # Number of instructions fetched each cycle (Total)
system.switch_cpus0.fetch.rateDist::2            1430      1.29%     80.79% # Number of instructions fetched each cycle (Total)
system.switch_cpus0.fetch.rateDist::3            1361      1.23%     82.02% # Number of instructions fetched each cycle (Total)
system.switch_cpus0.fetch.rateDist::4            1954      1.77%     83.79% # Number of instructions fetched each cycle (Total)
system.switch_cpus0.fetch.rateDist::5            1977      1.79%     85.57% # Number of instructions fetched each cycle (Total)
system.switch_cpus0.fetch.rateDist::6            1340      1.21%     86.79% # Number of instructions fetched each cycle (Total)
system.switch_cpus0.fetch.rateDist::7            1128      1.02%     87.81% # Number of instructions fetched each cycle (Total)
system.switch_cpus0.fetch.rateDist::8           13488     12.19%    100.00% # Number of instructions fetched each cycle (Total)
system.switch_cpus0.fetch.rateDist::overflows            0      0.00%    100.00% # Number of instructions fetched each cycle (Total)
system.switch_cpus0.fetch.rateDist::min_value            0                       # Number of instructions fetched each cycle (Total)
system.switch_cpus0.fetch.rateDist::max_value            8                       # Number of instructions fetched each cycle (Total)
system.switch_cpus0.fetch.rateDist::total       110612                       # Number of instructions fetched each cycle (Total)
system.switch_cpus0.fetch.branchRate         0.101672                       # Number of branch fetches per cycle
system.switch_cpus0.fetch.rate               0.522254                       # Number of inst fetches per cycle
system.switch_cpus0.decode.IdleCycles           32249                       # Number of cycles decode is idle
system.switch_cpus0.decode.BlockedCycles        55867                       # Number of cycles decode is blocked
system.switch_cpus0.decode.RunCycles            17988                       # Number of cycles decode is running
system.switch_cpus0.decode.UnblockCycles         2496                       # Number of cycles decode is unblocking
system.switch_cpus0.decode.SquashCycles          2012                       # Number of cycles decode is squashing
system.switch_cpus0.decode.DecodedInsts        135322                       # Number of instructions handled by decode
system.switch_cpus0.rename.SquashCycles          2012                       # Number of cycles rename is squashing
system.switch_cpus0.rename.IdleCycles           33735                       # Number of cycles rename is idle
system.switch_cpus0.rename.BlockCycles          24398                       # Number of cycles rename is blocking
system.switch_cpus0.rename.serializeStallCycles        19948                       # count of cycles rename stalled for serializing inst
system.switch_cpus0.rename.RunCycles            18778                       # Number of cycles rename is running
system.switch_cpus0.rename.UnblockCycles        11741                       # Number of cycles rename is unblocking
system.switch_cpus0.rename.RenamedInsts        128310                       # Number of instructions processed by rename
system.switch_cpus0.rename.ROBFullEvents          425                       # Number of times rename has blocked due to ROB full
system.switch_cpus0.rename.IQFullEvents          1830                       # Number of times rename has blocked due to IQ full
system.switch_cpus0.rename.LQFullEvents           341                       # Number of times rename has blocked due to LQ full
system.switch_cpus0.rename.SQFullEvents          8707                       # Number of times rename has blocked due to SQ full
system.switch_cpus0.rename.RenamedOperands       143252                       # Number of destination operands rename has renamed
system.switch_cpus0.rename.RenameLookups       321606                       # Number of register rename lookups that rename has made
system.switch_cpus0.rename.int_rename_lookups       203010                       # Number of integer rename lookups
system.switch_cpus0.rename.fp_rename_lookups           67                       # Number of floating rename lookups
system.switch_cpus0.rename.CommittedMaps        82016                       # Number of HB maps that are committed
system.switch_cpus0.rename.UndoneMaps           61236                       # Number of HB maps that are undone due to squashing
system.switch_cpus0.rename.serializingInsts          415                       # count of serializing insts renamed
system.switch_cpus0.rename.tempSerializingInsts          429                       # count of temporary serializing insts renamed
system.switch_cpus0.rename.skidInsts            11352                       # count of insts added to the skid buffer
system.switch_cpus0.memDep0.insertedLoads        17218                       # Number of loads inserted to the mem dependence unit.
system.switch_cpus0.memDep0.insertedStores        10568                       # Number of stores inserted to the mem dependence unit.
system.switch_cpus0.memDep0.conflictingLoads         2859                       # Number of conflicting loads.
system.switch_cpus0.memDep0.conflictingStores         1882                       # Number of conflicting stores.
system.switch_cpus0.iq.iqInstsAdded            117390                       # Number of instructions added to the IQ (excludes non-spec)
system.switch_cpus0.iq.iqNonSpecInstsAdded         1107                       # Number of non-speculative instructions added to the IQ
system.switch_cpus0.iq.iqInstsIssued           102598                       # Number of instructions issued
system.switch_cpus0.iq.iqSquashedInstsIssued          601                       # Number of squashed instructions issued
system.switch_cpus0.iq.iqSquashedInstsExamined        44532                       # Number of squashed instructions iterated over during squash; mainly for profiling
system.switch_cpus0.iq.iqSquashedOperandsExamined        66832                       # Number of squashed operands that are examined and possibly removed from graph
system.switch_cpus0.iq.iqSquashedNonSpecRemoved          457                       # Number of squashed non-spec instructions that were removed
system.switch_cpus0.iq.issued_per_cycle::samples       110612                       # Number of insts issued each cycle
system.switch_cpus0.iq.issued_per_cycle::mean     0.927549                       # Number of insts issued each cycle
system.switch_cpus0.iq.issued_per_cycle::stdev     1.820699                       # Number of insts issued each cycle
system.switch_cpus0.iq.issued_per_cycle::underflows            0      0.00%      0.00% # Number of insts issued each cycle
system.switch_cpus0.iq.issued_per_cycle::0        79331     71.72%     71.72% # Number of insts issued each cycle
system.switch_cpus0.iq.issued_per_cycle::1         8075      7.30%     79.02% # Number of insts issued each cycle
system.switch_cpus0.iq.issued_per_cycle::2         5476      4.95%     83.97% # Number of insts issued each cycle
system.switch_cpus0.iq.issued_per_cycle::3         4645      4.20%     88.17% # Number of insts issued each cycle
system.switch_cpus0.iq.issued_per_cycle::4         4304      3.89%     92.06% # Number of insts issued each cycle
system.switch_cpus0.iq.issued_per_cycle::5         3419      3.09%     95.15% # Number of insts issued each cycle
system.switch_cpus0.iq.issued_per_cycle::6         3054      2.76%     97.91% # Number of insts issued each cycle
system.switch_cpus0.iq.issued_per_cycle::7         1463      1.32%     99.24% # Number of insts issued each cycle
system.switch_cpus0.iq.issued_per_cycle::8          845      0.76%    100.00% # Number of insts issued each cycle
system.switch_cpus0.iq.issued_per_cycle::overflows            0      0.00%    100.00% # Number of insts issued each cycle
system.switch_cpus0.iq.issued_per_cycle::min_value            0                       # Number of insts issued each cycle
system.switch_cpus0.iq.issued_per_cycle::max_value            8                       # Number of insts issued each cycle
system.switch_cpus0.iq.issued_per_cycle::total       110612                       # Number of insts issued each cycle
system.switch_cpus0.iq.fu_full::No_OpClass            0      0.00%      0.00% # attempts to use FU when none available
system.switch_cpus0.iq.fu_full::IntAlu            799     45.87%     45.87% # attempts to use FU when none available
system.switch_cpus0.iq.fu_full::IntMult             0      0.00%     45.87% # attempts to use FU when none available
system.switch_cpus0.iq.fu_full::IntDiv              0      0.00%     45.87% # attempts to use FU when none available
system.switch_cpus0.iq.fu_full::FloatAdd            2      0.11%     45.98% # attempts to use FU when none available
system.switch_cpus0.iq.fu_full::FloatCmp            0      0.00%     45.98% # attempts to use FU when none available
system.switch_cpus0.iq.fu_full::FloatCvt            0      0.00%     45.98% # attempts to use FU when none available
system.switch_cpus0.iq.fu_full::FloatMult            0      0.00%     45.98% # attempts to use FU when none available
system.switch_cpus0.iq.fu_full::FloatDiv            0      0.00%     45.98% # attempts to use FU when none available
system.switch_cpus0.iq.fu_full::FloatSqrt            0      0.00%     45.98% # attempts to use FU when none available
system.switch_cpus0.iq.fu_full::SimdAdd             0      0.00%     45.98% # attempts to use FU when none available
system.switch_cpus0.iq.fu_full::SimdAddAcc            0      0.00%     45.98% # attempts to use FU when none available
system.switch_cpus0.iq.fu_full::SimdAlu             0      0.00%     45.98% # attempts to use FU when none available
system.switch_cpus0.iq.fu_full::SimdCmp             0      0.00%     45.98% # attempts to use FU when none available
system.switch_cpus0.iq.fu_full::SimdCvt             0      0.00%     45.98% # attempts to use FU when none available
system.switch_cpus0.iq.fu_full::SimdMisc            0      0.00%     45.98% # attempts to use FU when none available
system.switch_cpus0.iq.fu_full::SimdMult            0      0.00%     45.98% # attempts to use FU when none available
system.switch_cpus0.iq.fu_full::SimdMultAcc            0      0.00%     45.98% # attempts to use FU when none available
system.switch_cpus0.iq.fu_full::SimdShift            0      0.00%     45.98% # attempts to use FU when none available
system.switch_cpus0.iq.fu_full::SimdShiftAcc            0      0.00%     45.98% # attempts to use FU when none available
system.switch_cpus0.iq.fu_full::SimdSqrt            0      0.00%     45.98% # attempts to use FU when none available
system.switch_cpus0.iq.fu_full::SimdFloatAdd            0      0.00%     45.98% # attempts to use FU when none available
system.switch_cpus0.iq.fu_full::SimdFloatAlu            0      0.00%     45.98% # attempts to use FU when none available
system.switch_cpus0.iq.fu_full::SimdFloatCmp            0      0.00%     45.98% # attempts to use FU when none available
system.switch_cpus0.iq.fu_full::SimdFloatCvt            0      0.00%     45.98% # attempts to use FU when none available
system.switch_cpus0.iq.fu_full::SimdFloatDiv            0      0.00%     45.98% # attempts to use FU when none available
system.switch_cpus0.iq.fu_full::SimdFloatMisc            0      0.00%     45.98% # attempts to use FU when none available
system.switch_cpus0.iq.fu_full::SimdFloatMult            0      0.00%     45.98% # attempts to use FU when none available
system.switch_cpus0.iq.fu_full::SimdFloatMultAcc            0      0.00%     45.98% # attempts to use FU when none available
system.switch_cpus0.iq.fu_full::SimdFloatSqrt            0      0.00%     45.98% # attempts to use FU when none available
system.switch_cpus0.iq.fu_full::MemRead           598     34.33%     80.31% # attempts to use FU when none available
system.switch_cpus0.iq.fu_full::MemWrite          343     19.69%    100.00% # attempts to use FU when none available
system.switch_cpus0.iq.fu_full::IprAccess            0      0.00%    100.00% # attempts to use FU when none available
system.switch_cpus0.iq.fu_full::InstPrefetch            0      0.00%    100.00% # attempts to use FU when none available
system.switch_cpus0.iq.FU_type_0::No_OpClass          889      0.87%      0.87% # Type of FU issued
system.switch_cpus0.iq.FU_type_0::IntAlu        77579     75.61%     76.48% # Type of FU issued
system.switch_cpus0.iq.FU_type_0::IntMult          288      0.28%     76.76% # Type of FU issued
system.switch_cpus0.iq.FU_type_0::IntDiv           72      0.07%     76.83% # Type of FU issued
system.switch_cpus0.iq.FU_type_0::FloatAdd           34      0.03%     76.87% # Type of FU issued
system.switch_cpus0.iq.FU_type_0::FloatCmp            0      0.00%     76.87% # Type of FU issued
system.switch_cpus0.iq.FU_type_0::FloatCvt            0      0.00%     76.87% # Type of FU issued
system.switch_cpus0.iq.FU_type_0::FloatMult            0      0.00%     76.87% # Type of FU issued
system.switch_cpus0.iq.FU_type_0::FloatDiv            0      0.00%     76.87% # Type of FU issued
system.switch_cpus0.iq.FU_type_0::FloatSqrt            0      0.00%     76.87% # Type of FU issued
system.switch_cpus0.iq.FU_type_0::SimdAdd            0      0.00%     76.87% # Type of FU issued
system.switch_cpus0.iq.FU_type_0::SimdAddAcc            0      0.00%     76.87% # Type of FU issued
system.switch_cpus0.iq.FU_type_0::SimdAlu            0      0.00%     76.87% # Type of FU issued
system.switch_cpus0.iq.FU_type_0::SimdCmp            0      0.00%     76.87% # Type of FU issued
system.switch_cpus0.iq.FU_type_0::SimdCvt            0      0.00%     76.87% # Type of FU issued
system.switch_cpus0.iq.FU_type_0::SimdMisc            0      0.00%     76.87% # Type of FU issued
system.switch_cpus0.iq.FU_type_0::SimdMult            0      0.00%     76.87% # Type of FU issued
system.switch_cpus0.iq.FU_type_0::SimdMultAcc            0      0.00%     76.87% # Type of FU issued
system.switch_cpus0.iq.FU_type_0::SimdShift            0      0.00%     76.87% # Type of FU issued
system.switch_cpus0.iq.FU_type_0::SimdShiftAcc            0      0.00%     76.87% # Type of FU issued
system.switch_cpus0.iq.FU_type_0::SimdSqrt            0      0.00%     76.87% # Type of FU issued
system.switch_cpus0.iq.FU_type_0::SimdFloatAdd            0      0.00%     76.87% # Type of FU issued
system.switch_cpus0.iq.FU_type_0::SimdFloatAlu            0      0.00%     76.87% # Type of FU issued
system.switch_cpus0.iq.FU_type_0::SimdFloatCmp            0      0.00%     76.87% # Type of FU issued
system.switch_cpus0.iq.FU_type_0::SimdFloatCvt            0      0.00%     76.87% # Type of FU issued
system.switch_cpus0.iq.FU_type_0::SimdFloatDiv            0      0.00%     76.87% # Type of FU issued
system.switch_cpus0.iq.FU_type_0::SimdFloatMisc            0      0.00%     76.87% # Type of FU issued
system.switch_cpus0.iq.FU_type_0::SimdFloatMult            0      0.00%     76.87% # Type of FU issued
system.switch_cpus0.iq.FU_type_0::SimdFloatMultAcc            0      0.00%     76.87% # Type of FU issued
system.switch_cpus0.iq.FU_type_0::SimdFloatSqrt            0      0.00%     76.87% # Type of FU issued
system.switch_cpus0.iq.FU_type_0::MemRead        14902     14.52%     91.39% # Type of FU issued
system.switch_cpus0.iq.FU_type_0::MemWrite         8834      8.61%    100.00% # Type of FU issued
system.switch_cpus0.iq.FU_type_0::IprAccess            0      0.00%    100.00% # Type of FU issued
system.switch_cpus0.iq.FU_type_0::InstPrefetch            0      0.00%    100.00% # Type of FU issued
system.switch_cpus0.iq.FU_type_0::total        102598                       # Type of FU issued
system.switch_cpus0.iq.rate                  0.640193                       # Inst issue rate
system.switch_cpus0.iq.fu_busy_cnt               1742                       # FU busy when requested
system.switch_cpus0.iq.fu_busy_rate          0.016979                       # FU busy rate (busy events/executed inst)
system.switch_cpus0.iq.int_inst_queue_reads       317988                       # Number of integer instruction queue reads
system.switch_cpus0.iq.int_inst_queue_writes       163015                       # Number of integer instruction queue writes
system.switch_cpus0.iq.int_inst_queue_wakeup_accesses        97088                       # Number of integer instruction queue wakeup accesses
system.switch_cpus0.iq.fp_inst_queue_reads          163                       # Number of floating instruction queue reads
system.switch_cpus0.iq.fp_inst_queue_writes          140                       # Number of floating instruction queue writes
system.switch_cpus0.iq.fp_inst_queue_wakeup_accesses           59                       # Number of floating instruction queue wakeup accesses
system.switch_cpus0.iq.int_alu_accesses        103371                       # Number of integer alu accesses
system.switch_cpus0.iq.fp_alu_accesses             80                       # Number of floating point alu accesses
system.switch_cpus0.iew.lsq.thread0.forwLoads         1643                       # Number of loads that had data forwarded from stores
system.switch_cpus0.iew.lsq.thread0.invAddrLoads            0                       # Number of loads ignored due to an invalid address
system.switch_cpus0.iew.lsq.thread0.squashedLoads         7042                       # Number of loads squashed
system.switch_cpus0.iew.lsq.thread0.ignoredResponses           45                       # Number of memory responses ignored because the instruction is squashed
system.switch_cpus0.iew.lsq.thread0.memOrderViolation          128                       # Number of memory ordering violations
system.switch_cpus0.iew.lsq.thread0.squashedStores         3791                       # Number of stores squashed
system.switch_cpus0.iew.lsq.thread0.invAddrSwpfs            0                       # Number of software prefetches ignored due to an invalid address
system.switch_cpus0.iew.lsq.thread0.blockedLoads            0                       # Number of blocked loads due to partial load-store forwarding
system.switch_cpus0.iew.lsq.thread0.rescheduledLoads           18                       # Number of loads that were rescheduled
system.switch_cpus0.iew.lsq.thread0.cacheBlocked          111                       # Number of times an access to memory failed due to the cache being blocked
system.switch_cpus0.iew.iewIdleCycles               0                       # Number of cycles IEW is idle
system.switch_cpus0.iew.iewSquashCycles          2012                       # Number of cycles IEW is squashing
system.switch_cpus0.iew.iewBlockCycles          13136                       # Number of cycles IEW is blocking
system.switch_cpus0.iew.iewUnblockCycles         4838                       # Number of cycles IEW is unblocking
system.switch_cpus0.iew.iewDispatchedInsts       118497                       # Number of instructions dispatched to IQ
system.switch_cpus0.iew.iewDispSquashedInsts          203                       # Number of squashed instructions skipped by dispatch
system.switch_cpus0.iew.iewDispLoadInsts        17218                       # Number of dispatched load instructions
system.switch_cpus0.iew.iewDispStoreInsts        10568                       # Number of dispatched store instructions
system.switch_cpus0.iew.iewDispNonSpecInsts          442                       # Number of dispatched non-speculative instructions
system.switch_cpus0.iew.iewIQFullEvents           147                       # Number of times the IQ has become full, causing a stall
system.switch_cpus0.iew.iewLSQFullEvents         4638                       # Number of times the LSQ has become full, causing a stall
system.switch_cpus0.iew.memOrderViolationEvents          128                       # Number of memory order violations
system.switch_cpus0.iew.predictedTakenIncorrect          490                       # Number of branches that were predicted taken incorrectly
system.switch_cpus0.iew.predictedNotTakenIncorrect         1794                       # Number of branches that were predicted not taken incorrectly
system.switch_cpus0.iew.branchMispredicts         2284                       # Number of branch mispredicts detected at execute
system.switch_cpus0.iew.iewExecutedInsts        98803                       # Number of executed instructions
system.switch_cpus0.iew.iewExecLoadInsts        13877                       # Number of load instructions executed
system.switch_cpus0.iew.iewExecSquashedInsts         3343                       # Number of squashed instructions skipped in execute
system.switch_cpus0.iew.exec_swp                    0                       # number of swp insts executed
system.switch_cpus0.iew.exec_nop                    0                       # number of nop insts executed
system.switch_cpus0.iew.exec_refs               22140                       # number of memory reference insts executed
system.switch_cpus0.iew.exec_branches            9865                       # Number of branches executed
system.switch_cpus0.iew.exec_stores              8263                       # Number of stores executed
system.switch_cpus0.iew.exec_rate            0.616513                       # Inst execution rate
system.switch_cpus0.iew.wb_sent                 97727                       # cumulative count of insts sent to commit
system.switch_cpus0.iew.wb_count                97147                       # cumulative count of insts written-back
system.switch_cpus0.iew.wb_producers            65999                       # num instructions producing a value
system.switch_cpus0.iew.wb_consumers           107673                       # num instructions consuming a value
system.switch_cpus0.iew.wb_penalized                0                       # number of instrctions required to write to 'other' IQ
system.switch_cpus0.iew.wb_rate              0.606180                       # insts written-back per cycle
system.switch_cpus0.iew.wb_fanout            0.612958                       # average fanout of values written-back
system.switch_cpus0.iew.wb_penalized_rate            0                       # fraction of instructions written-back that wrote to 'other' IQ
system.switch_cpus0.commit.commitSquashedInsts        46027                       # The number of squashed insts skipped by commit
system.switch_cpus0.commit.commitNonSpecStalls          650                       # The number of times commit has been forced to stall to communicate backwards
system.switch_cpus0.commit.branchMispredicts         1888                       # The number of times a branch was mispredicted
system.switch_cpus0.commit.committed_per_cycle::samples       103077                       # Number of insts commited each cycle
system.switch_cpus0.commit.committed_per_cycle::mean     0.702223                       # Number of insts commited each cycle
system.switch_cpus0.commit.committed_per_cycle::stdev     1.831009                       # Number of insts commited each cycle
system.switch_cpus0.commit.committed_per_cycle::underflows            0      0.00%      0.00% # Number of insts commited each cycle
system.switch_cpus0.commit.committed_per_cycle::0        82888     80.41%     80.41% # Number of insts commited each cycle
system.switch_cpus0.commit.committed_per_cycle::1         6355      6.17%     86.58% # Number of insts commited each cycle
system.switch_cpus0.commit.committed_per_cycle::2         2711      2.63%     89.21% # Number of insts commited each cycle
system.switch_cpus0.commit.committed_per_cycle::3         3213      3.12%     92.33% # Number of insts commited each cycle
system.switch_cpus0.commit.committed_per_cycle::4         1644      1.59%     93.92% # Number of insts commited each cycle
system.switch_cpus0.commit.committed_per_cycle::5         1265      1.23%     95.15% # Number of insts commited each cycle
system.switch_cpus0.commit.committed_per_cycle::6          711      0.69%     95.84% # Number of insts commited each cycle
system.switch_cpus0.commit.committed_per_cycle::7          520      0.50%     96.34% # Number of insts commited each cycle
system.switch_cpus0.commit.committed_per_cycle::8         3770      3.66%    100.00% # Number of insts commited each cycle
system.switch_cpus0.commit.committed_per_cycle::overflows            0      0.00%    100.00% # Number of insts commited each cycle
system.switch_cpus0.commit.committed_per_cycle::min_value            0                       # Number of insts commited each cycle
system.switch_cpus0.commit.committed_per_cycle::max_value            8                       # Number of insts commited each cycle
system.switch_cpus0.commit.committed_per_cycle::total       103077                       # Number of insts commited each cycle
system.switch_cpus0.commit.committedInsts        41145                       # Number of instructions committed
system.switch_cpus0.commit.committedOps         72383                       # Number of ops (including micro ops) committed
system.switch_cpus0.commit.swp_count                0                       # Number of s/w prefetches committed
system.switch_cpus0.commit.refs                 16953                       # Number of memory references committed
system.switch_cpus0.commit.loads                10176                       # Number of loads committed
system.switch_cpus0.commit.membars                391                       # Number of memory barriers committed
system.switch_cpus0.commit.branches              7815                       # Number of branches committed
system.switch_cpus0.commit.fp_insts                32                       # Number of committed floating point instructions.
system.switch_cpus0.commit.int_insts            71388                       # Number of committed integer instructions.
system.switch_cpus0.commit.function_calls          798                       # Number of function calls committed.
[...]
system.cpu3.dcache.tags.avg_refs         184184.040867                       # Average number of references to valid blocks.
system.cpu3.dcache.tags.warmup_cycle                0                       # Cycle when the warmup percentage was hit.
system.cpu3.dcache.tags.occ_blocks::switch_cpus3.data   749.999959                       # Average occupied blocks per requestor
system.cpu3.dcache.tags.occ_blocks::cpu3.data     2.000000                       # Average occupied blocks per requestor
system.cpu3.dcache.tags.occ_percent::switch_cpus3.data     0.732422                       # Average percentage of cache occupancy
system.cpu3.dcache.tags.occ_percent::cpu3.data     0.001953                       # Average percentage of cache occupancy
system.cpu3.dcache.tags.occ_percent::total     0.734375                       # Average percentage of cache occupancy
system.cpu3.dcache.tags.occ_task_id_blocks::1024          752                       # Occupied blocks per task id
system.cpu3.dcache.tags.age_task_id_blocks_1024::4          752                       # Occupied blocks per task id
system.cpu3.dcache.tags.occ_task_id_percent::1024     0.734375                       # Percentage of cache occupancy per task id
system.cpu3.dcache.tags.tag_accesses        441679852                       # Number of tag accesses
system.cpu3.dcache.tags.data_accesses       441679852                       # Number of data accesses
system.cpu3.dcache.ReadReq_hits::switch_cpus3.data    133816083                       # number of ReadReq hits
system.cpu3.dcache.ReadReq_hits::total      133816083                       # number of ReadReq hits
system.cpu3.dcache.WriteReq_hits::switch_cpus3.data     87021284                       # number of WriteReq hits
system.cpu3.dcache.WriteReq_hits::cpu3.data            3                       # number of WriteReq hits
system.cpu3.dcache.WriteReq_hits::total      87021287                       # number of WriteReq hits
system.cpu3.dcache.SoftPFReq_hits::switch_cpus3.data           46                       # number of SoftPFReq hits
system.cpu3.dcache.SoftPFReq_hits::total           46                       # number of SoftPFReq hits
system.cpu3.dcache.demand_hits::switch_cpus3.data    220837367                       # number of demand (read+write) hits
system.cpu3.dcache.demand_hits::cpu3.data            3                       # number of demand (read+write) hits
system.cpu3.dcache.demand_hits::total       220837370                       # number of demand (read+write) hits
system.cpu3.dcache.overall_hits::switch_cpus3.data    220837413                       # number of overall hits
system.cpu3.dcache.overall_hits::cpu3.data            3                       # number of overall hits
system.cpu3.dcache.overall_hits::total      220837416                       # number of overall hits
system.cpu3.dcache.ReadReq_misses::switch_cpus3.data         1300                       # number of ReadReq misses
system.cpu3.dcache.ReadReq_misses::cpu3.data            2                       # number of ReadReq misses
system.cpu3.dcache.ReadReq_misses::total         1302                       # number of ReadReq misses
system.cpu3.dcache.WriteReq_misses::switch_cpus3.data          513                       # number of WriteReq misses
system.cpu3.dcache.WriteReq_misses::cpu3.data            1                       # number of WriteReq misses
system.cpu3.dcache.WriteReq_misses::total          514                       # number of WriteReq misses
system.cpu3.dcache.SoftPFReq_misses::switch_cpus3.data           34                       # number of SoftPFReq misses
system.cpu3.dcache.SoftPFReq_misses::total           34                       # number of SoftPFReq misses
system.cpu3.dcache.demand_misses::switch_cpus3.data         1813                       # number of demand (read+write) misses
system.cpu3.dcache.demand_misses::cpu3.data            3                       # number of demand (read+write) misses
system.cpu3.dcache.demand_misses::total          1816                       # number of demand (read+write) misses
system.cpu3.dcache.overall_misses::switch_cpus3.data         1847                       # number of overall misses
system.cpu3.dcache.overall_misses::cpu3.data            3                       # number of overall misses
system.cpu3.dcache.overall_misses::total         1850                       # number of overall misses
system.cpu3.dcache.ReadReq_miss_latency::switch_cpus3.data     81724251                       # number of ReadReq miss cycles
system.cpu3.dcache.ReadReq_miss_latency::total     81724251                       # number of ReadReq miss cycles
system.cpu3.dcache.WriteReq_miss_latency::switch_cpus3.data     34269007                       # number of WriteReq miss cycles
system.cpu3.dcache.WriteReq_miss_latency::total     34269007                       # number of WriteReq miss cycles
system.cpu3.dcache.demand_miss_latency::switch_cpus3.data    115993258                       # number of demand (read+write) miss cycles
system.cpu3.dcache.demand_miss_latency::total    115993258                       # number of demand (read+write) miss cycles
system.cpu3.dcache.overall_miss_latency::switch_cpus3.data    115993258                       # number of overall miss cycles
system.cpu3.dcache.overall_miss_latency::total    115993258                       # number of overall miss cycles
system.cpu3.dcache.ReadReq_accesses::switch_cpus3.data    133817383                       # number of ReadReq accesses(hits+misses)
system.cpu3.dcache.ReadReq_accesses::cpu3.data            2                       # number of ReadReq accesses(hits+misses)
system.cpu3.dcache.ReadReq_accesses::total    133817385                       # number of ReadReq accesses(hits+misses)
system.cpu3.dcache.WriteReq_accesses::switch_cpus3.data     87021797                       # number of WriteReq accesses(hits+misses)
system.cpu3.dcache.WriteReq_accesses::cpu3.data            4                       # number of WriteReq accesses(hits+misses)
system.cpu3.dcache.WriteReq_accesses::total     87021801                       # number of WriteReq accesses(hits+misses)
system.cpu3.dcache.SoftPFReq_accesses::switch_cpus3.data           80                       # number of SoftPFReq accesses(hits+misses)
system.cpu3.dcache.SoftPFReq_accesses::total           80                       # number of SoftPFReq accesses(hits+misses)
system.cpu3.dcache.demand_accesses::switch_cpus3.data    220839180                       # number of demand (read+write) accesses
system.cpu3.dcache.demand_accesses::cpu3.data            6                       # number of demand (read+write) accesses
system.cpu3.dcache.demand_accesses::total    220839186                       # number of demand (read+write) accesses
system.cpu3.dcache.overall_accesses::switch_cpus3.data    220839260                       # number of overall (read+write) accesses
system.cpu3.dcache.overall_accesses::cpu3.data            6                       # number of overall (read+write) accesses
system.cpu3.dcache.overall_accesses::total    220839266                       # number of overall (read+write) accesses
system.cpu3.dcache.ReadReq_miss_rate::switch_cpus3.data     0.000010                       # miss rate for ReadReq accesses
system.cpu3.dcache.ReadReq_miss_rate::cpu3.data            1                       # miss rate for ReadReq accesses
system.cpu3.dcache.ReadReq_miss_rate::total     0.000010                       # miss rate for ReadReq accesses
system.cpu3.dcache.WriteReq_miss_rate::switch_cpus3.data     0.000006                       # miss rate for WriteReq accesses
system.cpu3.dcache.WriteReq_miss_rate::cpu3.data     0.250000                       # miss rate for WriteReq accesses
system.cpu3.dcache.WriteReq_miss_rate::total     0.000006                       # miss rate for WriteReq accesses
system.cpu3.dcache.SoftPFReq_miss_rate::switch_cpus3.data     0.425000                       # miss rate for SoftPFReq accesses
system.cpu3.dcache.SoftPFReq_miss_rate::total     0.425000                       # miss rate for SoftPFReq accesses
system.cpu3.dcache.demand_miss_rate::switch_cpus3.data     0.000008                       # miss rate for demand accesses
system.cpu3.dcache.demand_miss_rate::cpu3.data     0.500000                       # miss rate for demand accesses
system.cpu3.dcache.demand_miss_rate::total     0.000008                       # miss rate for demand accesses
system.cpu3.dcache.overall_miss_rate::switch_cpus3.data     0.000008                       # miss rate for overall accesses
system.cpu3.dcache.overall_miss_rate::cpu3.data     0.500000                       # miss rate for overall accesses
system.cpu3.dcache.overall_miss_rate::total     0.000008                       # miss rate for overall accesses
system.cpu3.dcache.ReadReq_avg_miss_latency::switch_cpus3.data 62864.808462                       # average ReadReq miss latency
system.cpu3.dcache.ReadReq_avg_miss_latency::total 62768.241935                       # average ReadReq miss latency
system.cpu3.dcache.WriteReq_avg_miss_latency::switch_cpus3.data 66801.183236                       # average WriteReq miss latency
system.cpu3.dcache.WriteReq_avg_miss_latency::total 66671.219844                       # average WriteReq miss latency
system.cpu3.dcache.demand_avg_miss_latency::switch_cpus3.data 63978.630998                       # average overall miss latency
system.cpu3.dcache.demand_avg_miss_latency::total 63872.939427                       # average overall miss latency
system.cpu3.dcache.overall_avg_miss_latency::switch_cpus3.data 62800.897672                       # average overall miss latency
system.cpu3.dcache.overall_avg_miss_latency::total 62699.058378                       # average overall miss latency
system.cpu3.dcache.blocked_cycles::no_mshrs         1481                       # number of cycles access was blocked
system.cpu3.dcache.blocked_cycles::no_targets          256                       # number of cycles access was blocked
system.cpu3.dcache.blocked::no_mshrs               26                       # number of cycles access was blocked
system.cpu3.dcache.blocked::no_targets              2                       # number of cycles access was blocked
system.cpu3.dcache.avg_blocked_cycles::no_mshrs    56.961538                       # average number of cycles each access was blocked
system.cpu3.dcache.avg_blocked_cycles::no_targets          128                       # average number of cycles each access was blocked
system.cpu3.dcache.fast_writes                      0                       # number of fast writes performed
system.cpu3.dcache.cache_copies                     0                       # number of cache copies performed
system.cpu3.dcache.writebacks::writebacks          188                       # number of writebacks
system.cpu3.dcache.writebacks::total              188                       # number of writebacks
system.cpu3.dcache.ReadReq_mshr_hits::switch_cpus3.data          476                       # number of ReadReq MSHR hits
system.cpu3.dcache.ReadReq_mshr_hits::total          476                       # number of ReadReq MSHR hits
system.cpu3.dcache.WriteReq_mshr_hits::switch_cpus3.data            7                       # number of WriteReq MSHR hits
system.cpu3.dcache.WriteReq_mshr_hits::total            7                       # number of WriteReq MSHR hits
system.cpu3.dcache.demand_mshr_hits::switch_cpus3.data          483                       # number of demand (read+write) MSHR hits
system.cpu3.dcache.demand_mshr_hits::total          483                       # number of demand (read+write) MSHR hits
system.cpu3.dcache.overall_mshr_hits::switch_cpus3.data          483                       # number of overall MSHR hits
system.cpu3.dcache.overall_mshr_hits::total          483                       # number of overall MSHR hits
system.cpu3.dcache.ReadReq_mshr_misses::switch_cpus3.data          824                       # number of ReadReq MSHR misses
system.cpu3.dcache.ReadReq_mshr_misses::total          824                       # number of ReadReq MSHR misses
system.cpu3.dcache.WriteReq_mshr_misses::switch_cpus3.data          506                       # number of WriteReq MSHR misses
system.cpu3.dcache.WriteReq_mshr_misses::total          506                       # number of WriteReq MSHR misses
system.cpu3.dcache.SoftPFReq_mshr_misses::switch_cpus3.data           33                       # number of SoftPFReq MSHR misses
system.cpu3.dcache.SoftPFReq_mshr_misses::total           33                       # number of SoftPFReq MSHR misses
system.cpu3.dcache.demand_mshr_misses::switch_cpus3.data         1330                       # number of demand (read+write) MSHR misses
system.cpu3.dcache.demand_mshr_misses::total         1330                       # number of demand (read+write) MSHR misses
system.cpu3.dcache.overall_mshr_misses::switch_cpus3.data         1363                       # number of overall MSHR misses
system.cpu3.dcache.overall_mshr_misses::total         1363                       # number of overall MSHR misses
system.cpu3.dcache.ReadReq_mshr_miss_latency::switch_cpus3.data     53241751                       # number of ReadReq MSHR miss cycles
system.cpu3.dcache.ReadReq_mshr_miss_latency::total     53241751                       # number of ReadReq MSHR miss cycles
system.cpu3.dcache.WriteReq_mshr_miss_latency::switch_cpus3.data     32687993                       # number of WriteReq MSHR miss cycles
system.cpu3.dcache.WriteReq_mshr_miss_latency::total     32687993                       # number of WriteReq MSHR miss cycles
system.cpu3.dcache.SoftPFReq_mshr_miss_latency::switch_cpus3.data      2233250                       # number of SoftPFReq MSHR miss cycles
system.cpu3.dcache.SoftPFReq_mshr_miss_latency::total      2233250                       # number of SoftPFReq MSHR miss cycles
system.cpu3.dcache.demand_mshr_miss_latency::switch_cpus3.data     85929744                       # number of demand (read+write) MSHR miss cycles
system.cpu3.dcache.demand_mshr_miss_latency::total     85929744                       # number of demand (read+write) MSHR miss cycles
system.cpu3.dcache.overall_mshr_miss_latency::switch_cpus3.data     88162994                       # number of overall MSHR miss cycles
system.cpu3.dcache.overall_mshr_miss_latency::total     88162994                       # number of overall MSHR miss cycles
system.cpu3.dcache.ReadReq_mshr_uncacheable_latency::switch_cpus3.data       816000                       # number of ReadReq MSHR uncacheable cycles
system.cpu3.dcache.ReadReq_mshr_uncacheable_latency::total       816000                       # number of ReadReq MSHR uncacheable cycles
system.cpu3.dcache.WriteReq_mshr_uncacheable_latency::switch_cpus3.data  44233438000                       # number of WriteReq MSHR uncacheable cycles
system.cpu3.dcache.WriteReq_mshr_uncacheable_latency::total  44233438000                       # number of WriteReq MSHR uncacheable cycles
system.cpu3.dcache.overall_mshr_uncacheable_latency::switch_cpus3.data  44234254000                       # number of overall MSHR uncacheable cycles
system.cpu3.dcache.overall_mshr_uncacheable_latency::total  44234254000                       # number of overall MSHR uncacheable cycles
system.cpu3.dcache.ReadReq_mshr_miss_rate::switch_cpus3.data     0.000006                       # mshr miss rate for ReadReq accesses
system.cpu3.dcache.ReadReq_mshr_miss_rate::total     0.000006                       # mshr miss rate for ReadReq accesses
system.cpu3.dcache.WriteReq_mshr_miss_rate::switch_cpus3.data     0.000006                       # mshr miss rate for WriteReq accesses
system.cpu3.dcache.WriteReq_mshr_miss_rate::total     0.000006                       # mshr miss rate for WriteReq accesses
system.cpu3.dcache.SoftPFReq_mshr_miss_rate::switch_cpus3.data     0.412500                       # mshr miss rate for SoftPFReq accesses
system.cpu3.dcache.SoftPFReq_mshr_miss_rate::total     0.412500                       # mshr miss rate for SoftPFReq accesses
system.cpu3.dcache.demand_mshr_miss_rate::switch_cpus3.data     0.000006                       # mshr miss rate for demand accesses
system.cpu3.dcache.demand_mshr_miss_rate::total     0.000006                       # mshr miss rate for demand accesses
system.cpu3.dcache.overall_mshr_miss_rate::switch_cpus3.data     0.000006                       # mshr miss rate for overall accesses
system.cpu3.dcache.overall_mshr_miss_rate::total     0.000006                       # mshr miss rate for overall accesses
system.cpu3.dcache.ReadReq_avg_mshr_miss_latency::switch_cpus3.data 64613.775485                       # average ReadReq mshr miss latency
system.cpu3.dcache.ReadReq_avg_mshr_miss_latency::total 64613.775485                       # average ReadReq mshr miss latency
system.cpu3.dcache.WriteReq_avg_mshr_miss_latency::switch_cpus3.data 64600.776680                       # average WriteReq mshr miss latency
system.cpu3.dcache.WriteReq_avg_mshr_miss_latency::total 64600.776680                       # average WriteReq mshr miss latency
system.cpu3.dcache.SoftPFReq_avg_mshr_miss_latency::switch_cpus3.data 67674.242424                       # average SoftPFReq mshr miss latency
system.cpu3.dcache.SoftPFReq_avg_mshr_miss_latency::total 67674.242424                       # average SoftPFReq mshr miss latency
system.cpu3.dcache.demand_avg_mshr_miss_latency::switch_cpus3.data 64608.830075                       # average overall mshr miss latency
system.cpu3.dcache.demand_avg_mshr_miss_latency::total 64608.830075                       # average overall mshr miss latency
system.cpu3.dcache.overall_avg_mshr_miss_latency::switch_cpus3.data 64683.047689                       # average overall mshr miss latency
system.cpu3.dcache.overall_avg_mshr_miss_latency::total 64683.047689                       # average overall mshr miss latency
system.cpu3.dcache.ReadReq_avg_mshr_uncacheable_latency::switch_cpus3.data          inf                       # average ReadReq mshr uncacheable latency
system.cpu3.dcache.ReadReq_avg_mshr_uncacheable_latency::total          inf                       # average ReadReq mshr uncacheable latency
system.cpu3.dcache.WriteReq_avg_mshr_uncacheable_latency::switch_cpus3.data          inf                       # average WriteReq mshr uncacheable latency
system.cpu3.dcache.WriteReq_avg_mshr_uncacheable_latency::total          inf                       # average WriteReq mshr uncacheable latency
system.cpu3.dcache.overall_avg_mshr_uncacheable_latency::switch_cpus3.data          inf                       # average overall mshr uncacheable latency
system.cpu3.dcache.overall_avg_mshr_uncacheable_latency::total          inf                       # average overall mshr uncacheable latency
system.cpu3.dcache.no_allocate_misses               0                       # Number of misses that were no-allocate
system.switch_cpus0.kern.inst.arm                   0                       # number of arm instructions executed
system.switch_cpus0.kern.inst.quiesce               0                       # number of quiesce instructions executed
system.switch_cpus1.kern.inst.arm                   0                       # number of arm instructions executed
system.switch_cpus1.kern.inst.quiesce               0                       # number of quiesce instructions executed
system.switch_cpus2.kern.inst.arm                   0                       # number of arm instructions executed
system.switch_cpus2.kern.inst.quiesce               0                       # number of quiesce instructions executed
system.switch_cpus3.kern.inst.arm                   0                       # number of arm instructions executed
system.switch_cpus3.kern.inst.quiesce               0                       # number of quiesce instructions executed

---------- End Simulation Statistics   ----------
