
---------- Begin Simulation Statistics ----------
sim_seconds                                  3.964572                       # Number of seconds simulated
sim_ticks                                3964571927500                       # Number of ticks simulated
final_tick                               3964571927500                       # Number of ticks from beginning of simulation (restored from checkpoints and never reset)
sim_freq                                 1000000000000                       # Frequency of simulated ticks
host_inst_rate                                2001671                       # Simulator instruction rate (inst/s)
host_op_rate                                  2115868                       # Simulator op (including micro ops) rate (op/s)
host_tick_rate                              752927004                       # Simulator tick rate (ticks/s)
host_mem_usage                                 880740                       # Number of bytes of host memory used
host_seconds                                  5265.55                       # Real time elapsed on the host
sim_insts                                 10539889266                       # Number of instructions simulated
sim_ops                                   11141202213                       # Number of ops (including micro ops) simulated
system.voltage_domain.voltage                       1                       # Voltage in Volts
system.clk_domain.clock                          1000                       # Clock period in ticks
system.realview.nvmem.bytes_read::cpu0.inst           20                       # Number of bytes read from this memory
system.realview.nvmem.bytes_read::cpu1.inst           48                       # Number of bytes read from this memory
system.realview.nvmem.bytes_read::cpu2.inst           48                       # Number of bytes read from this memory
system.realview.nvmem.bytes_read::cpu3.inst           48                       # Number of bytes read from this memory
system.realview.nvmem.bytes_read::cpu4.inst           48                       # Number of bytes read from this memory
system.realview.nvmem.bytes_read::cpu5.inst           48                       # Number of bytes read from this memory
system.realview.nvmem.bytes_read::cpu6.inst           48                       # Number of bytes read from this memory
system.realview.nvmem.bytes_read::cpu7.inst           48                       # Number of bytes read from this memory
system.realview.nvmem.bytes_read::total           356                       # Number of bytes read from this memory
system.realview.nvmem.bytes_inst_read::cpu0.inst           20                       # Number of instructions bytes read from this memory
system.realview.nvmem.bytes_inst_read::cpu1.inst           48                       # Number of instructions bytes read from this memory
system.realview.nvmem.bytes_inst_read::cpu2.inst           48                       # Number of instructions bytes read from this memory
system.realview.nvmem.bytes_inst_read::cpu3.inst           48                       # Number of instructions bytes read from this memory
system.realview.nvmem.bytes_inst_read::cpu4.inst           48                       # Number of instructions bytes read from this memory
system.realview.nvmem.bytes_inst_read::cpu5.inst           48                       # Number of instructions bytes read from this memory
system.realview.nvmem.bytes_inst_read::cpu6.inst           48                       # Number of instructions bytes read from this memory
system.realview.nvmem.bytes_inst_read::cpu7.inst           48                       # Number of instructions bytes read from this memory
system.realview.nvmem.bytes_inst_read::total          356                       # Number of instructions bytes read from this memory
system.realview.nvmem.num_reads::cpu0.inst            5                       # Number of read requests responded to by this memory
system.realview.nvmem.num_reads::cpu1.inst           12                       # Number of read requests responded to by this memory
system.realview.nvmem.num_reads::cpu2.inst           12                       # Number of read requests responded to by this memory
system.realview.nvmem.num_reads::cpu3.inst           12                       # Number of read requests responded to by this memory
system.realview.nvmem.num_reads::cpu4.inst           12                       # Number of read requests responded to by this memory
system.realview.nvmem.num_reads::cpu5.inst           12                       # Number of read requests responded to by this memory
system.realview.nvmem.num_reads::cpu6.inst           12                       # Number of read requests responded to by this memory
system.realview.nvmem.num_reads::cpu7.inst           12                       # Number of read requests responded to by this memory
system.realview.nvmem.num_reads::total             89                       # Number of read requests responded to by this memory
system.realview.nvmem.bw_read::cpu0.inst            5                       # Total read bandwidth from this memory (bytes/s)
system.realview.nvmem.bw_read::cpu1.inst           12                       # Total read bandwidth from this memory (bytes/s)
system.realview.nvmem.bw_read::cpu2.inst           12                       # Total read bandwidth from this memory (bytes/s)
system.realview.nvmem.bw_read::cpu3.inst           12                       # Total read bandwidth from this memory (bytes/s)
system.realview.nvmem.bw_read::cpu4.inst           12                       # Total read bandwidth from this memory (bytes/s)
system.realview.nvmem.bw_read::cpu5.inst           12                       # Total read bandwidth from this memory (bytes/s)
system.realview.nvmem.bw_read::cpu6.inst           12                       # Total read bandwidth from this memory (bytes/s)
system.realview.nvmem.bw_read::cpu7.inst           12                       # Total read bandwidth from this memory (bytes/s)
system.realview.nvmem.bw_read::total               90                       # Total read bandwidth from this memory (bytes/s)
system.realview.nvmem.bw_inst_read::cpu0.inst            5                       # Instruction read bandwidth from this memory (bytes/s)
system.realview.nvmem.bw_inst_read::cpu1.inst           12                       # Instruction read bandwidth from this memory (bytes/s)
system.realview.nvmem.bw_inst_read::cpu2.inst           12                       # Instruction read bandwidth from this memory (bytes/s)
system.realview.nvmem.bw_inst_read::cpu3.inst           12                       # Instruction read bandwidth from this memory (bytes/s)
system.realview.nvmem.bw_inst_read::cpu4.inst           12                       # Instruction read bandwidth from this memory (bytes/s)
system.realview.nvmem.bw_inst_read::cpu5.inst           12                       # Instruction read bandwidth from this memory (bytes/s)
system.realview.nvmem.bw_inst_read::cpu6.inst           12                       # Instruction read bandwidth from this memory (bytes/s)
system.realview.nvmem.bw_inst_read::cpu7.inst           12                       # Instruction read bandwidth from this memory (bytes/s)
system.realview.nvmem.bw_inst_read::total           90                       # Instruction read bandwidth from this memory (bytes/s)
system.realview.nvmem.bw_total::cpu0.inst            5                       # Total bandwidth to/from this memory (bytes/s)
system.realview.nvmem.bw_total::cpu1.inst           12                       # Total bandwidth to/from this memory (bytes/s)
system.realview.nvmem.bw_total::cpu2.inst           12                       # Total bandwidth to/from this memory (bytes/s)
system.realview.nvmem.bw_total::cpu3.inst           12                       # Total bandwidth to/from this memory (bytes/s)
system.realview.nvmem.bw_total::cpu4.inst           12                       # Total bandwidth to/from this memory (bytes/s)
system.realview.nvmem.bw_total::cpu5.inst           12                       # Total bandwidth to/from this memory (bytes/s)
system.realview.nvmem.bw_total::cpu6.inst           12                       # Total bandwidth to/from this memory (bytes/s)
system.realview.nvmem.bw_total::cpu7.inst           12                       # Total bandwidth to/from this memory (bytes/s)
system.realview.nvmem.bw_total::total              90                       # Total bandwidth to/from this memory (bytes/s)
system.mem_ctrls.bytes_read::realview.ide       314880                       # Number of bytes read from this memory
system.mem_ctrls.bytes_read::cpu0.dtb.walker        97024                       # Number of bytes read from this memory
system.mem_ctrls.bytes_read::cpu0.itb.walker        81408                       # Number of bytes read from this memory
system.mem_ctrls.bytes_read::cpu0.inst        5984356                       # Number of bytes read from this memory
system.mem_ctrls.bytes_read::cpu0.data       58011888                       # Number of bytes read from this memory
system.mem_ctrls.bytes_read::cpu1.dtb.walker        61696                       # Number of bytes read from this memory
system.mem_ctrls.bytes_read::cpu1.itb.walker        60864                       # Number of bytes read from this memory
system.mem_ctrls.bytes_read::cpu1.inst        2022368                       # Number of bytes read from this memory
system.mem_ctrls.bytes_read::cpu1.data       20732667                       # Number of bytes read from this memory
system.mem_ctrls.bytes_read::cpu2.dtb.walker        72064                       # Number of bytes read from this memory
system.mem_ctrls.bytes_read::cpu2.itb.walker        70528                       # Number of bytes read from this memory
system.mem_ctrls.bytes_read::cpu2.inst      162598900                       # Number of bytes read from this memory
system.mem_ctrls.bytes_read::cpu2.data       71893591                       # Number of bytes read from this memory
system.mem_ctrls.bytes_read::cpu3.dtb.walker        73152                       # Number of bytes read from this memory
system.mem_ctrls.bytes_read::cpu3.itb.walker        76928                       # Number of bytes read from this memory
system.mem_ctrls.bytes_read::cpu3.inst      321846584                       # Number of bytes read from this memory
system.mem_ctrls.bytes_read::cpu3.data      124085315                       # Number of bytes read from this memory
system.mem_ctrls.bytes_read::cpu4.dtb.walker        60672                       # Number of bytes read from this memory
system.mem_ctrls.bytes_read::cpu4.itb.walker        59328                       # Number of bytes read from this memory
system.mem_ctrls.bytes_read::cpu4.inst      482986772                       # Number of bytes read from this memory
system.mem_ctrls.bytes_read::cpu4.data      179007351                       # Number of bytes read from this memory
system.mem_ctrls.bytes_read::cpu5.dtb.walker        35264                       # Number of bytes read from this memory
system.mem_ctrls.bytes_read::cpu5.itb.walker        21632                       # Number of bytes read from this memory
system.mem_ctrls.bytes_read::cpu5.inst      640882336                       # Number of bytes read from this memory
system.mem_ctrls.bytes_read::cpu5.data      221128571                       # Number of bytes read from this memory
system.mem_ctrls.bytes_read::cpu6.dtb.walker        42816                       # Number of bytes read from this memory
system.mem_ctrls.bytes_read::cpu6.itb.walker        47232                       # Number of bytes read from this memory
system.mem_ctrls.bytes_read::cpu6.inst      802547840                       # Number of bytes read from this memory
system.mem_ctrls.bytes_read::cpu6.data      279487451                       # Number of bytes read from this memory
system.mem_ctrls.bytes_read::cpu7.dtb.walker        58880                       # Number of bytes read from this memory
system.mem_ctrls.bytes_read::cpu7.itb.walker        59264                       # Number of bytes read from this memory
system.mem_ctrls.bytes_read::cpu7.inst      961966216                       # Number of bytes read from this memory
system.mem_ctrls.bytes_read::cpu7.data      336538780                       # Number of bytes read from this memory
system.mem_ctrls.bytes_read::total         4673014618                       # Number of bytes read from this memory
system.mem_ctrls.bytes_inst_read::cpu0.inst      5984356                       # Number of instructions bytes read from this memory
system.mem_ctrls.bytes_inst_read::cpu1.inst      2022368                       # Number of instructions bytes read from this memory
system.mem_ctrls.bytes_inst_read::cpu2.inst    162598900                       # Number of instructions bytes read from this memory
system.mem_ctrls.bytes_inst_read::cpu3.inst    321846584                       # Number of instructions bytes read from this memory
system.mem_ctrls.bytes_inst_read::cpu4.inst    482986772                       # Number of instructions bytes read from this memory
system.mem_ctrls.bytes_inst_read::cpu5.inst    640882336                       # Number of instructions bytes read from this memory
system.mem_ctrls.bytes_inst_read::cpu6.inst    802547840                       # Number of instructions bytes read from this memory
system.mem_ctrls.bytes_inst_read::cpu7.inst    961966216                       # Number of instructions bytes read from this memory
system.mem_ctrls.bytes_inst_read::total    3380835372                       # Number of instructions bytes read from this memory
system.mem_ctrls.bytes_written::writebacks    129540864                       # Number of bytes written to this memory
system.mem_ctrls.bytes_written::realview.ide     16358912                       # Number of bytes written to this memory
system.mem_ctrls.bytes_written::cpu0.data        18064                       # Number of bytes written to this memory
system.mem_ctrls.bytes_written::cpu1.data           54                       # Number of bytes written to this memory
system.mem_ctrls.bytes_written::cpu2.data           54                       # Number of bytes written to this memory
system.mem_ctrls.bytes_written::cpu3.data           54                       # Number of bytes written to this memory
system.mem_ctrls.bytes_written::cpu4.data           54                       # Number of bytes written to this memory
system.mem_ctrls.bytes_written::cpu5.data           54                       # Number of bytes written to this memory
system.mem_ctrls.bytes_written::cpu6.data           54                       # Number of bytes written to this memory
system.mem_ctrls.bytes_written::cpu7.data           40                       # Number of bytes written to this memory
system.mem_ctrls.bytes_written::total       145918204                       # Number of bytes written to this memory
system.mem_ctrls.num_reads::realview.ide         4920                       # Number of read requests responded to by this memory
system.mem_ctrls.num_reads::cpu0.dtb.walker         1516                       # Number of read requests responded to by this memory
system.mem_ctrls.num_reads::cpu0.itb.walker         1272                       # Number of read requests responded to by this memory
system.mem_ctrls.num_reads::cpu0.inst          101959                       # Number of read requests responded to by this memory
system.mem_ctrls.num_reads::cpu0.data          907063                       # Number of read requests responded to by this memory
system.mem_ctrls.num_reads::cpu1.dtb.walker          964                       # Number of read requests responded to by this memory
system.mem_ctrls.num_reads::cpu1.itb.walker          951                       # Number of read requests responded to by this memory
system.mem_ctrls.num_reads::cpu1.inst           31757                       # Number of read requests responded to by this memory
system.mem_ctrls.num_reads::cpu1.data          323979                       # Number of read requests responded to by this memory
system.mem_ctrls.num_reads::cpu2.dtb.walker         1126                       # Number of read requests responded to by this memory
system.mem_ctrls.num_reads::cpu2.itb.walker         1102                       # Number of read requests responded to by this memory
system.mem_ctrls.num_reads::cpu2.inst        40046395                       # Number of read requests responded to by this memory
system.mem_ctrls.num_reads::cpu2.data        13625245                       # Number of read requests responded to by this memory
system.mem_ctrls.num_reads::cpu3.dtb.walker         1143                       # Number of read requests responded to by this memory
system.mem_ctrls.num_reads::cpu3.itb.walker         1202                       # Number of read requests responded to by this memory
system.mem_ctrls.num_reads::cpu3.inst        80046401                       # Number of read requests responded to by this memory
system.mem_ctrls.num_reads::cpu3.data        26944661                       # Number of read requests responded to by this memory
system.mem_ctrls.num_reads::cpu4.dtb.walker          948                       # Number of read requests responded to by this memory
system.mem_ctrls.num_reads::cpu4.itb.walker          927                       # Number of read requests responded to by this memory
system.mem_ctrls.num_reads::cpu4.inst       120065453                       # Number of read requests responded to by this memory
system.mem_ctrls.num_reads::cpu4.data        40303230                       # Number of read requests responded to by this memory
system.mem_ctrls.num_reads::cpu5.dtb.walker          551                       # Number of read requests responded to by this memory
system.mem_ctrls.num_reads::cpu5.itb.walker          338                       # Number of read requests responded to by this memory
system.mem_ctrls.num_reads::cpu5.inst       160037059                       # Number of read requests responded to by this memory
system.mem_ctrls.num_reads::cpu5.data        53462870                       # Number of read requests responded to by this memory
system.mem_ctrls.num_reads::cpu6.dtb.walker          669                       # Number of read requests responded to by this memory
system.mem_ctrls.num_reads::cpu6.itb.walker          738                       # Number of read requests responded to by this memory
system.mem_ctrls.num_reads::cpu6.inst       200068850                       # Number of read requests responded to by this memory
system.mem_ctrls.num_reads::cpu6.data        66876650                       # Number of read requests responded to by this memory
system.mem_ctrls.num_reads::cpu7.dtb.walker          920                       # Number of read requests responded to by this memory
system.mem_ctrls.num_reads::cpu7.itb.walker          926                       # Number of read requests responded to by this memory
system.mem_ctrls.num_reads::cpu7.inst       240065524                       # Number of read requests responded to by this memory
system.mem_ctrls.num_reads::cpu7.data        80269991                       # Number of read requests responded to by this memory
system.mem_ctrls.num_reads::total          1123197300                       # Number of read requests responded to by this memory
system.mem_ctrls.num_writes::writebacks       2024076                       # Number of write requests responded to by this memory
system.mem_ctrls.num_writes::realview.ide       255608                       # Number of write requests responded to by this memory
system.mem_ctrls.num_writes::cpu0.data           4522                       # Number of write requests responded to by this memory
system.mem_ctrls.num_writes::cpu1.data             14                       # Number of write requests responded to by this memory
system.mem_ctrls.num_writes::cpu2.data             14                       # Number of write requests responded to by this memory
system.mem_ctrls.num_writes::cpu3.data             14                       # Number of write requests responded to by this memory
system.mem_ctrls.num_writes::cpu4.data             14                       # Number of write requests responded to by this memory
system.mem_ctrls.num_writes::cpu5.data             14                       # Number of write requests responded to by this memory
system.mem_ctrls.num_writes::cpu6.data             14                       # Number of write requests responded to by this memory
system.mem_ctrls.num_writes::cpu7.data             10                       # Number of write requests responded to by this memory
system.mem_ctrls.num_writes::total            2284300                       # Number of write requests responded to by this memory
system.mem_ctrls.bw_read::realview.ide          79423                       # Total read bandwidth from this memory (bytes/s)
system.mem_ctrls.bw_read::cpu0.dtb.walker        24473                       # Total read bandwidth from this memory (bytes/s)
system.mem_ctrls.bw_read::cpu0.itb.walker        20534                       # Total read bandwidth from this memory (bytes/s)
system.mem_ctrls.bw_read::cpu0.inst           1509458                       # Total read bandwidth from this memory (bytes/s)
system.mem_ctrls.bw_read::cpu0.data          14632573                       # Total read bandwidth from this memory (bytes/s)
system.mem_ctrls.bw_read::cpu1.dtb.walker        15562                       # Total read bandwidth from this memory (bytes/s)
system.mem_ctrls.bw_read::cpu1.itb.walker        15352                       # Total read bandwidth from this memory (bytes/s)
system.mem_ctrls.bw_read::cpu1.inst            510110                       # Total read bandwidth from this memory (bytes/s)
system.mem_ctrls.bw_read::cpu1.data           5229484                       # Total read bandwidth from this memory (bytes/s)
system.mem_ctrls.bw_read::cpu2.dtb.walker        18177                       # Total read bandwidth from this memory (bytes/s)
system.mem_ctrls.bw_read::cpu2.itb.walker        17790                       # Total read bandwidth from this memory (bytes/s)
system.mem_ctrls.bw_read::cpu2.inst          41012978                       # Total read bandwidth from this memory (bytes/s)
system.mem_ctrls.bw_read::cpu2.data          18134011                       # Total read bandwidth from this memory (bytes/s)
system.mem_ctrls.bw_read::cpu3.dtb.walker        18451                       # Total read bandwidth from this memory (bytes/s)
system.mem_ctrls.bw_read::cpu3.itb.walker        19404                       # Total read bandwidth from this memory (bytes/s)
system.mem_ctrls.bw_read::cpu3.inst          81180665                       # Total read bandwidth from this memory (bytes/s)
system.mem_ctrls.bw_read::cpu3.data          31298540                       # Total read bandwidth from this memory (bytes/s)
system.mem_ctrls.bw_read::cpu4.dtb.walker        15304                       # Total read bandwidth from this memory (bytes/s)
system.mem_ctrls.bw_read::cpu4.itb.walker        14965                       # Total read bandwidth from this memory (bytes/s)
system.mem_ctrls.bw_read::cpu4.inst         121825705                       # Total read bandwidth from this memory (bytes/s)
system.mem_ctrls.bw_read::cpu4.data          45151748                       # Total read bandwidth from this memory (bytes/s)
system.mem_ctrls.bw_read::cpu5.dtb.walker         8895                       # Total read bandwidth from this memory (bytes/s)
system.mem_ctrls.bw_read::cpu5.itb.walker         5456                       # Total read bandwidth from this memory (bytes/s)
system.mem_ctrls.bw_read::cpu5.inst         161652342                       # Total read bandwidth from this memory (bytes/s)
system.mem_ctrls.bw_read::cpu5.data          55776153                       # Total read bandwidth from this memory (bytes/s)
system.mem_ctrls.bw_read::cpu6.dtb.walker        10800                       # Total read bandwidth from this memory (bytes/s)
system.mem_ctrls.bw_read::cpu6.itb.walker        11914                       # Total read bandwidth from this memory (bytes/s)
system.mem_ctrls.bw_read::cpu6.inst         202429885                       # Total read bandwidth from this memory (bytes/s)
system.mem_ctrls.bw_read::cpu6.data          70496249                       # Total read bandwidth from this memory (bytes/s)
system.mem_ctrls.bw_read::cpu7.dtb.walker        14852                       # Total read bandwidth from this memory (bytes/s)
system.mem_ctrls.bw_read::cpu7.itb.walker        14948                       # Total read bandwidth from this memory (bytes/s)
system.mem_ctrls.bw_read::cpu7.inst         242640626                       # Total read bandwidth from this memory (bytes/s)
system.mem_ctrls.bw_read::cpu7.data          84886537                       # Total read bandwidth from this memory (bytes/s)
system.mem_ctrls.bw_read::total            1178693363                       # Total read bandwidth from this memory (bytes/s)
system.mem_ctrls.bw_inst_read::cpu0.inst      1509458                       # Instruction read bandwidth from this memory (bytes/s)
system.mem_ctrls.bw_inst_read::cpu1.inst       510110                       # Instruction read bandwidth from this memory (bytes/s)
system.mem_ctrls.bw_inst_read::cpu2.inst     41012978                       # Instruction read bandwidth from this memory (bytes/s)
system.mem_ctrls.bw_inst_read::cpu3.inst     81180665                       # Instruction read bandwidth from this memory (bytes/s)
system.mem_ctrls.bw_inst_read::cpu4.inst    121825705                       # Instruction read bandwidth from this memory (bytes/s)
system.mem_ctrls.bw_inst_read::cpu5.inst    161652342                       # Instruction read bandwidth from this memory (bytes/s)
system.mem_ctrls.bw_inst_read::cpu6.inst    202429885                       # Instruction read bandwidth from this memory (bytes/s)
system.mem_ctrls.bw_inst_read::cpu7.inst    242640626                       # Instruction read bandwidth from this memory (bytes/s)
system.mem_ctrls.bw_inst_read::total        852761769                       # Instruction read bandwidth from this memory (bytes/s)
system.mem_ctrls.bw_write::writebacks        32674616                       # Write bandwidth from this memory (bytes/s)
system.mem_ctrls.bw_write::realview.ide       4126274                       # Write bandwidth from this memory (bytes/s)
system.mem_ctrls.bw_write::cpu0.data             4556                       # Write bandwidth from this memory (bytes/s)
system.mem_ctrls.bw_write::cpu1.data               14                       # Write bandwidth from this memory (bytes/s)
system.mem_ctrls.bw_write::cpu2.data               14                       # Write bandwidth from this memory (bytes/s)
system.mem_ctrls.bw_write::cpu3.data               14                       # Write bandwidth from this memory (bytes/s)
system.mem_ctrls.bw_write::cpu4.data               14                       # Write bandwidth from this memory (bytes/s)
system.mem_ctrls.bw_write::cpu5.data               14                       # Write bandwidth from this memory (bytes/s)
system.mem_ctrls.bw_write::cpu6.data               14                       # Write bandwidth from this memory (bytes/s)
system.mem_ctrls.bw_write::cpu7.data               10                       # Write bandwidth from this memory (bytes/s)
system.mem_ctrls.bw_write::total             36805538                       # Write bandwidth from this memory (bytes/s)
system.mem_ctrls.bw_total::writebacks        32674616                       # Total bandwidth to/from this memory (bytes/s)
system.mem_ctrls.bw_total::realview.ide       4205698                       # Total bandwidth to/from this memory (bytes/s)
system.mem_ctrls.bw_total::cpu0.dtb.walker        24473                       # Total bandwidth to/from this memory (bytes/s)
system.mem_ctrls.bw_total::cpu0.itb.walker        20534                       # Total bandwidth to/from this memory (bytes/s)
system.mem_ctrls.bw_total::cpu0.inst          1509458                       # Total bandwidth to/from this memory (bytes/s)
system.mem_ctrls.bw_total::cpu0.data         14637129                       # Total bandwidth to/from this memory (bytes/s)
system.mem_ctrls.bw_total::cpu1.dtb.walker        15562                       # Total bandwidth to/from this memory (bytes/s)
system.mem_ctrls.bw_total::cpu1.itb.walker        15352                       # Total bandwidth to/from this memory (bytes/s)
system.mem_ctrls.bw_total::cpu1.inst           510110                       # Total bandwidth to/from this memory (bytes/s)
system.mem_ctrls.bw_total::cpu1.data          5229498                       # Total bandwidth to/from this memory (bytes/s)
system.mem_ctrls.bw_total::cpu2.dtb.walker        18177                       # Total bandwidth to/from this memory (bytes/s)
system.mem_ctrls.bw_total::cpu2.itb.walker        17790                       # Total bandwidth to/from this memory (bytes/s)
system.mem_ctrls.bw_total::cpu2.inst         41012978                       # Total bandwidth to/from this memory (bytes/s)
system.mem_ctrls.bw_total::cpu2.data         18134025                       # Total bandwidth to/from this memory (bytes/s)
system.mem_ctrls.bw_total::cpu3.dtb.walker        18451                       # Total bandwidth to/from this memory (bytes/s)
system.mem_ctrls.bw_total::cpu3.itb.walker        19404                       # Total bandwidth to/from this memory (bytes/s)
system.mem_ctrls.bw_total::cpu3.inst         81180665                       # Total bandwidth to/from this memory (bytes/s)
system.mem_ctrls.bw_total::cpu3.data         31298554                       # Total bandwidth to/from this memory (bytes/s)
system.mem_ctrls.bw_total::cpu4.dtb.walker        15304                       # Total bandwidth to/from this memory (bytes/s)
system.mem_ctrls.bw_total::cpu4.itb.walker        14965                       # Total bandwidth to/from this memory (bytes/s)
system.mem_ctrls.bw_total::cpu4.inst        121825705                       # Total bandwidth to/from this memory (bytes/s)
system.mem_ctrls.bw_total::cpu4.data         45151761                       # Total bandwidth to/from this memory (bytes/s)
system.mem_ctrls.bw_total::cpu5.dtb.walker         8895                       # Total bandwidth to/from this memory (bytes/s)
system.mem_ctrls.bw_total::cpu5.itb.walker         5456                       # Total bandwidth to/from this memory (bytes/s)
system.mem_ctrls.bw_total::cpu5.inst        161652342                       # Total bandwidth to/from this memory (bytes/s)
system.mem_ctrls.bw_total::cpu5.data         55776167                       # Total bandwidth to/from this memory (bytes/s)
system.mem_ctrls.bw_total::cpu6.dtb.walker        10800                       # Total bandwidth to/from this memory (bytes/s)
system.mem_ctrls.bw_total::cpu6.itb.walker        11914                       # Total bandwidth to/from this memory (bytes/s)
system.mem_ctrls.bw_total::cpu6.inst        202429885                       # Total bandwidth to/from this memory (bytes/s)
system.mem_ctrls.bw_total::cpu6.data         70496263                       # Total bandwidth to/from this memory (bytes/s)
system.mem_ctrls.bw_total::cpu7.dtb.walker        14852                       # Total bandwidth to/from this memory (bytes/s)
system.mem_ctrls.bw_total::cpu7.itb.walker        14948                       # Total bandwidth to/from this memory (bytes/s)
system.mem_ctrls.bw_total::cpu7.inst        242640626                       # Total bandwidth to/from this memory (bytes/s)
system.mem_ctrls.bw_total::cpu7.data         84886547                       # Total bandwidth to/from this memory (bytes/s)
system.mem_ctrls.bw_total::total           1215498901                       # Total bandwidth to/from this memory (bytes/s)
system.mem_ctrls.readReqs                           0                       # Number of read requests accepted
system.mem_ctrls.writeReqs                          0                       # Number of write requests accepted
system.mem_ctrls.readBursts                         0                       # Number of DRAM read bursts, including those serviced by the write queue
system.mem_ctrls.writeBursts                        0                       # Number of DRAM write bursts, including those merged in the write queue
system.mem_ctrls.bytesReadDRAM                      0                       # Total number of bytes read from DRAM
system.mem_ctrls.bytesReadWrQ                       0                       # Total number of bytes read from write queue
system.mem_ctrls.bytesWritten                       0                       # Total number of bytes written to DRAM
system.mem_ctrls.bytesReadSys                       0                       # Total read bytes from the system interface side
system.mem_ctrls.bytesWrittenSys                    0                       # Total written bytes from the system interface side
system.mem_ctrls.servicedByWrQ                      0                       # Number of DRAM read bursts serviced by the write queue
system.mem_ctrls.mergedWrBursts                     0                       # Number of DRAM write bursts merged with an existing one
system.mem_ctrls.neitherReadNorWriteReqs            0                       # Number of requests that are neither read nor write
system.mem_ctrls.perBankRdBursts::0                 0                       # Per bank write bursts
system.mem_ctrls.perBankRdBursts::1                 0                       # Per bank write bursts
system.mem_ctrls.perBankRdBursts::2                 0                       # Per bank write bursts
system.mem_ctrls.perBankRdBursts::3                 0                       # Per bank write bursts
system.mem_ctrls.perBankRdBursts::4                 0                       # Per bank write bursts
system.mem_ctrls.perBankRdBursts::5                 0                       # Per bank write bursts
system.mem_ctrls.perBankRdBursts::6                 0                       # Per bank write bursts
system.mem_ctrls.perBankRdBursts::7                 0                       # Per bank write bursts
system.mem_ctrls.perBankRdBursts::8                 0                       # Per bank write bursts
system.mem_ctrls.perBankRdBursts::9                 0                       # Per bank write bursts
system.mem_ctrls.perBankRdBursts::10                0                       # Per bank write bursts
system.mem_ctrls.perBankRdBursts::11                0                       # Per bank write bursts
system.mem_ctrls.perBankRdBursts::12                0                       # Per bank write bursts
system.mem_ctrls.perBankRdBursts::13                0                       # Per bank write bursts
system.mem_ctrls.perBankRdBursts::14                0                       # Per bank write bursts
system.mem_ctrls.perBankRdBursts::15                0                       # Per bank write bursts
system.mem_ctrls.perBankWrBursts::0                 0                       # Per bank write bursts
system.mem_ctrls.perBankWrBursts::1                 0                       # Per bank write bursts
system.mem_ctrls.perBankWrBursts::2                 0                       # Per bank write bursts
system.mem_ctrls.perBankWrBursts::3                 0                       # Per bank write bursts
system.mem_ctrls.perBankWrBursts::4                 0                       # Per bank write bursts
system.mem_ctrls.perBankWrBursts::5                 0                       # Per bank write bursts
system.mem_ctrls.perBankWrBursts::6                 0                       # Per bank write bursts
system.mem_ctrls.perBankWrBursts::7                 0                       # Per bank write bursts
system.mem_ctrls.perBankWrBursts::8                 0                       # Per bank write bursts
system.mem_ctrls.perBankWrBursts::9                 0                       # Per bank write bursts
system.mem_ctrls.perBankWrBursts::10                0                       # Per bank write bursts
system.mem_ctrls.perBankWrBursts::11                0                       # Per bank write bursts
system.mem_ctrls.perBankWrBursts::12                0                       # Per bank write bursts
system.mem_ctrls.perBankWrBursts::13                0                       # Per bank write bursts
system.mem_ctrls.perBankWrBursts::14                0                       # Per bank write bursts
system.mem_ctrls.perBankWrBursts::15                0                       # Per bank write bursts
system.mem_ctrls.numRdRetry                         0                       # Number of times read queue was full causing retry
system.mem_ctrls.numWrRetry                         0                       # Number of times write queue was full causing retry
system.mem_ctrls.totGap                             0                       # Total gap between requests
system.mem_ctrls.readPktSize::0                     0                       # Read request sizes (log2)
system.mem_ctrls.readPktSize::1                     0                       # Read request sizes (log2)
system.mem_ctrls.readPktSize::2                     0                       # Read request sizes (log2)
system.mem_ctrls.readPktSize::3                     0                       # Read request sizes (log2)
system.mem_ctrls.readPktSize::4                     0                       # Read request sizes (log2)
system.mem_ctrls.readPktSize::5                     0                       # Read request sizes (log2)
system.mem_ctrls.readPktSize::6                     0                       # Read request sizes (log2)
system.mem_ctrls.writePktSize::0                    0                       # Write request sizes (log2)
system.mem_ctrls.writePktSize::1                    0                       # Write request sizes (log2)
system.mem_ctrls.writePktSize::2                    0                       # Write request sizes (log2)
system.mem_ctrls.writePktSize::3                    0                       # Write request sizes (log2)
system.mem_ctrls.writePktSize::4                    0                       # Write request sizes (log2)
system.mem_ctrls.writePktSize::5                    0                       # Write request sizes (log2)
system.mem_ctrls.writePktSize::6                    0                       # Write request sizes (log2)
system.mem_ctrls.rdQLenPdf::0                       0                       # What read queue length does an incoming req see
system.mem_ctrls.rdQLenPdf::1                       0                       # What read queue length does an incoming req see
system.mem_ctrls.rdQLenPdf::2                       0                       # What read queue length does an incoming req see
system.mem_ctrls.rdQLenPdf::3                       0                       # What read queue length does an incoming req see
system.mem_ctrls.rdQLenPdf::4                       0                       # What read queue length does an incoming req see
system.mem_ctrls.rdQLenPdf::5                       0                       # What read queue length does an incoming req see
system.mem_ctrls.rdQLenPdf::6                       0                       # What read queue length does an incoming req see
system.mem_ctrls.rdQLenPdf::7                       0                       # What read queue length does an incoming req see
system.mem_ctrls.rdQLenPdf::8                       0                       # What read queue length does an incoming req see
system.mem_ctrls.rdQLenPdf::9                       0                       # What read queue length does an incoming req see
system.mem_ctrls.rdQLenPdf::10                      0                       # What read queue length does an incoming req see
system.mem_ctrls.rdQLenPdf::11                      0                       # What read queue length does an incoming req see
system.mem_ctrls.rdQLenPdf::12                      0                       # What read queue length does an incoming req see
system.mem_ctrls.rdQLenPdf::13                      0                       # What read queue length does an incoming req see
system.mem_ctrls.rdQLenPdf::14                      0                       # What read queue length does an incoming req see
system.mem_ctrls.rdQLenPdf::15                      0                       # What read queue length does an incoming req see
system.mem_ctrls.rdQLenPdf::16                      0                       # What read queue length does an incoming req see
system.mem_ctrls.rdQLenPdf::17                      0                       # What read queue length does an incoming req see
system.mem_ctrls.rdQLenPdf::18                      0                       # What read queue length does an incoming req see
system.mem_ctrls.rdQLenPdf::19                      0                       # What read queue length does an incoming req see
system.mem_ctrls.rdQLenPdf::20                      0                       # What read queue length does an incoming req see
system.mem_ctrls.rdQLenPdf::21                      0                       # What read queue length does an incoming req see
system.mem_ctrls.rdQLenPdf::22                      0                       # What read queue length does an incoming req see
system.mem_ctrls.rdQLenPdf::23                      0                       # What read queue length does an incoming req see
system.mem_ctrls.rdQLenPdf::24                      0                       # What read queue length does an incoming req see
system.mem_ctrls.rdQLenPdf::25                      0                       # What read queue length does an incoming req see
system.mem_ctrls.rdQLenPdf::26                      0                       # What read queue length does an incoming req see
system.mem_ctrls.rdQLenPdf::27                      0                       # What read queue length does an incoming req see
system.mem_ctrls.rdQLenPdf::28                      0                       # What read queue length does an incoming req see
system.mem_ctrls.rdQLenPdf::29                      0                       # What read queue length does an incoming req see
system.mem_ctrls.rdQLenPdf::30                      0                       # What read queue length does an incoming req see
system.mem_ctrls.rdQLenPdf::31                      0                       # What read queue length does an incoming req see
system.mem_ctrls.wrQLenPdf::0                       0                       # What write queue length does an incoming req see
system.mem_ctrls.wrQLenPdf::1                       0                       # What write queue length does an incoming req see
system.mem_ctrls.wrQLenPdf::2                       0                       # What write queue length does an incoming req see
system.mem_ctrls.wrQLenPdf::3                       0                       # What write queue length does an incoming req see
system.mem_ctrls.wrQLenPdf::4                       0                       # What write queue length does an incoming req see
system.mem_ctrls.wrQLenPdf::5                       0                       # What write queue length does an incoming req see
system.mem_ctrls.wrQLenPdf::6                       0                       # What write queue length does an incoming req see
system.mem_ctrls.wrQLenPdf::7                       0                       # What write queue length does an incoming req see
system.mem_ctrls.wrQLenPdf::8                       0                       # What write queue length does an incoming req see
system.mem_ctrls.wrQLenPdf::9                       0                       # What write queue length does an incoming req see
system.mem_ctrls.wrQLenPdf::10                      0                       # What write queue length does an incoming req see
system.mem_ctrls.wrQLenPdf::11                      0                       # What write queue length does an incoming req see
system.mem_ctrls.wrQLenPdf::12                      0                       # What write queue length does an incoming req see
system.mem_ctrls.wrQLenPdf::13                      0                       # What write queue length does an incoming req see
system.mem_ctrls.wrQLenPdf::14                      0                       # What write queue length does an incoming req see
system.mem_ctrls.wrQLenPdf::15                      0                       # What write queue length does an incoming req see
system.mem_ctrls.wrQLenPdf::16                      0                       # What write queue length does an incoming req see
system.mem_ctrls.wrQLenPdf::17                      0                       # What write queue length does an incoming req see
system.mem_ctrls.wrQLenPdf::18                      0                       # What write queue length does an incoming req see
system.mem_ctrls.wrQLenPdf::19                      0                       # What write queue length does an incoming req see
system.mem_ctrls.wrQLenPdf::20                      0                       # What write queue length does an incoming req see
system.mem_ctrls.wrQLenPdf::21                      0                       # What write queue length does an incoming req see
system.mem_ctrls.wrQLenPdf::22                      0                       # What write queue length does an incoming req see
system.mem_ctrls.wrQLenPdf::23                      0                       # What write queue length does an incoming req see
system.mem_ctrls.wrQLenPdf::24                      0                       # What write queue length does an incoming req see
system.mem_ctrls.wrQLenPdf::25                      0                       # What write queue length does an incoming req see
system.mem_ctrls.wrQLenPdf::26                      0                       # What write queue length does an incoming req see
system.mem_ctrls.wrQLenPdf::27                      0                       # What write queue length does an incoming req see
system.mem_ctrls.wrQLenPdf::28                      0                       # What write queue length does an incoming req see
system.mem_ctrls.wrQLenPdf::29                      0                       # What write queue length does an incoming req see
system.mem_ctrls.wrQLenPdf::30                      0                       # What write queue length does an incoming req see
system.mem_ctrls.wrQLenPdf::31                      0                       # What write queue length does an incoming req see
system.mem_ctrls.wrQLenPdf::32                      0                       # What write queue length does an incoming req see
system.mem_ctrls.wrQLenPdf::33                      0                       # What write queue length does an incoming req see
system.mem_ctrls.wrQLenPdf::34                      0                       # What write queue length does an incoming req see
system.mem_ctrls.wrQLenPdf::35                      0                       # What write queue length does an incoming req see
system.mem_ctrls.wrQLenPdf::36                      0                       # What write queue length does an incoming req see
system.mem_ctrls.wrQLenPdf::37                      0                       # What write queue length does an incoming req see
system.mem_ctrls.wrQLenPdf::38                      0                       # What write queue length does an incoming req see
system.mem_ctrls.wrQLenPdf::39                      0                       # What write queue length does an incoming req see
system.mem_ctrls.wrQLenPdf::40                      0                       # What write queue length does an incoming req see
system.mem_ctrls.wrQLenPdf::41                      0                       # What write queue length does an incoming req see
system.mem_ctrls.wrQLenPdf::42                      0                       # What write queue length does an incoming req see
system.mem_ctrls.wrQLenPdf::43                      0                       # What write queue length does an incoming req see
system.mem_ctrls.wrQLenPdf::44                      0                       # What write queue length does an incoming req see
system.mem_ctrls.wrQLenPdf::45                      0                       # What write queue length does an incoming req see
system.mem_ctrls.wrQLenPdf::46                      0                       # What write queue length does an incoming req see
system.mem_ctrls.wrQLenPdf::47                      0                       # What write queue length does an incoming req see
system.mem_ctrls.wrQLenPdf::48                      0                       # What write queue length does an incoming req see
system.mem_ctrls.wrQLenPdf::49                      0                       # What write queue length does an incoming req see
system.mem_ctrls.wrQLenPdf::50                      0                       # What write queue length does an incoming req see
system.mem_ctrls.wrQLenPdf::51                      0                       # What write queue length does an incoming req see
system.mem_ctrls.wrQLenPdf::52                      0                       # What write queue length does an incoming req see
system.mem_ctrls.wrQLenPdf::53                      0                       # What write queue length does an incoming req see
system.mem_ctrls.wrQLenPdf::54                      0                       # What write queue length does an incoming req see
system.mem_ctrls.wrQLenPdf::55                      0                       # What write queue length does an incoming req see
system.mem_ctrls.wrQLenPdf::56                      0                       # What write queue length does an incoming req see
system.mem_ctrls.wrQLenPdf::57                      0                       # What write queue length does an incoming req see
system.mem_ctrls.wrQLenPdf::58                      0                       # What write queue length does an incoming req see
system.mem_ctrls.wrQLenPdf::59                      0                       # What write queue length does an incoming req see
system.mem_ctrls.wrQLenPdf::60                      0                       # What write queue length does an incoming req see
system.mem_ctrls.wrQLenPdf::61                      0                       # What write queue length does an incoming req see
system.mem_ctrls.wrQLenPdf::62                      0                       # What write queue length does an incoming req see
system.mem_ctrls.wrQLenPdf::63                      0                       # What write queue length does an incoming req see
system.mem_ctrls.totQLat                            0                       # Total ticks spent queuing
system.mem_ctrls.totMemAccLat                       0                       # Total ticks spent from burst creation until serviced by the DRAM
system.mem_ctrls.totBusLat                          0                       # Total ticks spent in databus transfers
system.mem_ctrls.avgQLat                          nan                       # Average queueing delay per DRAM burst
system.mem_ctrls.avgBusLat                        nan                       # Average bus latency per DRAM burst
system.mem_ctrls.avgMemAccLat                     nan                       # Average memory access latency per DRAM burst
system.mem_ctrls.avgRdBW                         0.00                       # Average DRAM read bandwidth in MiByte/s
system.mem_ctrls.avgWrBW                         0.00                       # Average achieved write bandwidth in MiByte/s
system.mem_ctrls.avgRdBWSys                      0.00                       # Average system read bandwidth in MiByte/s
system.mem_ctrls.avgWrBWSys                      0.00                       # Average system write bandwidth in MiByte/s
system.mem_ctrls.peakBW                      12800.00                       # Theoretical peak bandwidth in MiByte/s
system.mem_ctrls.busUtil                         0.00                       # Data bus utilization in percentage
system.mem_ctrls.busUtilRead                     0.00                       # Data bus utilization in percentage for reads
system.mem_ctrls.busUtilWrite                    0.00                       # Data bus utilization in percentage for writes
system.mem_ctrls.avgRdQLen                       0.00                       # Average read queue length when enqueuing
system.mem_ctrls.avgWrQLen                       0.00                       # Average write queue length when enqueuing
system.mem_ctrls.readRowHits                        0                       # Number of row buffer hits during reads
system.mem_ctrls.writeRowHits                       0                       # Number of row buffer hits during writes
system.mem_ctrls.readRowHitRate                   nan                       # Row buffer hit rate for reads
system.mem_ctrls.writeRowHitRate                  nan                       # Row buffer hit rate for writes
system.mem_ctrls.avgGap                           nan                       # Average gap between requests
system.mem_ctrls.pageHitRate                      nan                       # Row buffer hit rate, read and write combined
system.mem_ctrls.memoryStateTime::IDLE   3832186130000                       # Time in different power states
system.mem_ctrls.memoryStateTime::REF    132385760000                       # Time in different power states
system.mem_ctrls.memoryStateTime::PRE_PDN            0                       # Time in different power states
system.mem_ctrls.memoryStateTime::ACT               0                       # Time in different power states
system.mem_ctrls.memoryStateTime::ACT_PDN            0                       # Time in different power states
system.mem_ctrls.actEnergy::0                       0                       # Energy for activate commands per rank (pJ)
system.mem_ctrls.actEnergy::1                       0                       # Energy for activate commands per rank (pJ)
system.mem_ctrls.preEnergy::0                       0                       # Energy for precharge commands per rank (pJ)
system.mem_ctrls.preEnergy::1                       0                       # Energy for precharge commands per rank (pJ)
system.mem_ctrls.readEnergy::0                      0                       # Energy for read commands per rank (pJ)
system.mem_ctrls.readEnergy::1                      0                       # Energy for read commands per rank (pJ)
system.mem_ctrls.writeEnergy::0                     0                       # Energy for write commands per rank (pJ)
system.mem_ctrls.writeEnergy::1                     0                       # Energy for write commands per rank (pJ)
system.mem_ctrls.refreshEnergy::0        258946546560                       # Energy for refresh commands per rank (pJ)
system.mem_ctrls.refreshEnergy::1        258946546560                       # Energy for refresh commands per rank (pJ)
system.mem_ctrls.actBackEnergy::0         85763059560                       # Energy for active background per rank (pJ)
system.mem_ctrls.actBackEnergy::1         85763059560                       # Energy for active background per rank (pJ)
system.mem_ctrls.preBackEnergy::0        2303512371750                       # Energy for precharge background per rank (pJ)
system.mem_ctrls.preBackEnergy::1        2303512371750                       # Energy for precharge background per rank (pJ)
system.mem_ctrls.totalEnergy::0          2648221977870                       # Total energy per rank (pJ)
system.mem_ctrls.totalEnergy::1          2648221977870                       # Total energy per rank (pJ)
system.mem_ctrls.averagePower::0           667.971741                       # Core power per rank (mW)
system.mem_ctrls.averagePower::1           667.971741                       # Core power per rank (mW)
system.cpu_voltage_domain.voltage                   1                       # Voltage in Volts
system.cpu_clk_domain.clock                       500                       # Clock period in ticks
system.tol2bus.trans_dist::ReadReq         1159223594                       # Transaction distribution
system.tol2bus.trans_dist::ReadResp        1159223612                       # Transaction distribution
system.tol2bus.trans_dist::WriteReq             58035                       # Transaction distribution
system.tol2bus.trans_dist::WriteResp            58035                       # Transaction distribution
system.tol2bus.trans_dist::Writeback          8299615                       # Transaction distribution
system.tol2bus.trans_dist::SoftPFReq               18                       # Transaction distribution
system.tol2bus.trans_dist::SoftPFResp              18                       # Transaction distribution
system.tol2bus.trans_dist::UpgradeReq          573289                       # Transaction distribution
system.tol2bus.trans_dist::SCUpgradeReq        310974                       # Transaction distribution
system.tol2bus.trans_dist::UpgradeResp         884263                       # Transaction distribution
system.tol2bus.trans_dist::ReadExReq          4871928                       # Transaction distribution
system.tol2bus.trans_dist::ReadExResp         4871928                       # Transaction distribution
system.tol2bus.trans_dist::LoadLockedReq           18                       # Transaction distribution
system.tol2bus.trans_dist::StoreCondReq            18                       # Transaction distribution
system.tol2bus.trans_dist::StoreCondResp           18                       # Transaction distribution
system.tol2bus.pkt_count_system.cpu0.icache.mem_side::system.l2.cpu_side     12581648                       # Packet count per connected master and slave (bytes)
system.tol2bus.pkt_count_system.cpu0.dcache.mem_side::system.l2.cpu_side     11778987                       # Packet count per connected master and slave (bytes)
system.tol2bus.pkt_count_system.cpu0.itb.walker.dma::system.l2.cpu_side       389752                       # Packet count per connected master and slave (bytes)
system.tol2bus.pkt_count_system.cpu0.dtb.walker.dma::system.l2.cpu_side      1061436                       # Packet count per connected master and slave (bytes)
system.tol2bus.pkt_count_system.cpu1.icache.mem_side::system.l2.cpu_side      6059496                       # Packet count per connected master and slave (bytes)
system.tol2bus.pkt_count_system.cpu1.dcache.mem_side::system.l2.cpu_side      5483303                       # Packet count per connected master and slave (bytes)
system.tol2bus.pkt_count_system.cpu1.itb.walker.dma::system.l2.cpu_side       206172                       # Packet count per connected master and slave (bytes)
system.tol2bus.pkt_count_system.cpu1.dtb.walker.dma::system.l2.cpu_side       653416                       # Packet count per connected master and slave (bytes)
system.tol2bus.pkt_count_system.cpu2.icache.mem_side::system.l2.cpu_side     85433674                       # Packet count per connected master and slave (bytes)
system.tol2bus.pkt_count_system.cpu2.dcache.mem_side::system.l2.cpu_side     31606840                       # Packet count per connected master and slave (bytes)
system.tol2bus.pkt_count_system.cpu2.itb.walker.dma::system.l2.cpu_side       243880                       # Packet count per connected master and slave (bytes)
system.tol2bus.pkt_count_system.cpu2.dtb.walker.dma::system.l2.cpu_side       707266                       # Packet count per connected master and slave (bytes)
system.tol2bus.pkt_count_system.cpu3.icache.mem_side::system.l2.cpu_side    164030998                       # Packet count per connected master and slave (bytes)
system.tol2bus.pkt_count_system.cpu3.dcache.mem_side::system.l2.cpu_side     57665643                       # Packet count per connected master and slave (bytes)
system.tol2bus.pkt_count_system.cpu3.itb.walker.dma::system.l2.cpu_side       188032                       # Packet count per connected master and slave (bytes)
system.tol2bus.pkt_count_system.cpu3.dtb.walker.dma::system.l2.cpu_side       539424                       # Packet count per connected master and slave (bytes)
system.tol2bus.pkt_count_system.cpu4.icache.mem_side::system.l2.cpu_side    246439108                       # Packet count per connected master and slave (bytes)
system.tol2bus.pkt_count_system.cpu4.dcache.mem_side::system.l2.cpu_side     86122004                       # Packet count per connected master and slave (bytes)
system.tol2bus.pkt_count_system.cpu4.itb.walker.dma::system.l2.cpu_side       225418                       # Packet count per connected master and slave (bytes)
system.tol2bus.pkt_count_system.cpu4.dtb.walker.dma::system.l2.cpu_side       712290                       # Packet count per connected master and slave (bytes)
system.tol2bus.pkt_count_system.cpu5.icache.mem_side::system.l2.cpu_side    322159892                       # Packet count per connected master and slave (bytes)
system.tol2bus.pkt_count_system.cpu5.dcache.mem_side::system.l2.cpu_side    109264484                       # Packet count per connected master and slave (bytes)
system.tol2bus.pkt_count_system.cpu5.itb.walker.dma::system.l2.cpu_side       108560                       # Packet count per connected master and slave (bytes)
system.tol2bus.pkt_count_system.cpu5.dtb.walker.dma::system.l2.cpu_side       396366                       # Packet count per connected master and slave (bytes)
system.tol2bus.pkt_count_system.cpu6.icache.mem_side::system.l2.cpu_side    404783678                       # Packet count per connected master and slave (bytes)
system.tol2bus.pkt_count_system.cpu6.dcache.mem_side::system.l2.cpu_side    137677056                       # Packet count per connected master and slave (bytes)
system.tol2bus.pkt_count_system.cpu6.itb.walker.dma::system.l2.cpu_side       249018                       # Packet count per connected master and slave (bytes)
system.tol2bus.pkt_count_system.cpu6.dtb.walker.dma::system.l2.cpu_side       695748                       # Packet count per connected master and slave (bytes)
system.tol2bus.pkt_count_system.cpu7.icache.mem_side::system.l2.cpu_side    485022084                       # Packet count per connected master and slave (bytes)
system.tol2bus.pkt_count_system.cpu7.dcache.mem_side::system.l2.cpu_side    165099596                       # Packet count per connected master and slave (bytes)
system.tol2bus.pkt_count_system.cpu7.itb.walker.dma::system.l2.cpu_side       207686                       # Packet count per connected master and slave (bytes)
system.tol2bus.pkt_count_system.cpu7.dtb.walker.dma::system.l2.cpu_side       582408                       # Packet count per connected master and slave (bytes)
system.tol2bus.pkt_count::total            2338375363                       # Packet count per connected master and slave (bytes)
system.tol2bus.pkt_size_system.cpu0.icache.mem_side::system.l2.cpu_side    402071416                       # Cumulative packet size per connected master and slave (bytes)
system.tol2bus.pkt_size_system.cpu0.dcache.mem_side::system.l2.cpu_side    441153139                       # Cumulative packet size per connected master and slave (bytes)
system.tol2bus.pkt_size_system.cpu0.itb.walker.dma::system.l2.cpu_side       779504                       # Cumulative packet size per connected master and slave (bytes)
system.tol2bus.pkt_size_system.cpu0.dtb.walker.dma::system.l2.cpu_side      2122872                       # Cumulative packet size per connected master and slave (bytes)
system.tol2bus.pkt_size_system.cpu1.icache.mem_side::system.l2.cpu_side    193893072                       # Cumulative packet size per connected master and slave (bytes)
system.tol2bus.pkt_size_system.cpu1.dcache.mem_side::system.l2.cpu_side    197048056                       # Cumulative packet size per connected master and slave (bytes)
system.tol2bus.pkt_size_system.cpu1.itb.walker.dma::system.l2.cpu_side       412344                       # Cumulative packet size per connected master and slave (bytes)
system.tol2bus.pkt_size_system.cpu1.dtb.walker.dma::system.l2.cpu_side      1306832                       # Cumulative packet size per connected master and slave (bytes)
system.tol2bus.pkt_size_system.cpu2.icache.mem_side::system.l2.cpu_side    333506468                       # Cumulative packet size per connected master and slave (bytes)
system.tol2bus.pkt_size_system.cpu2.dcache.mem_side::system.l2.cpu_side    231511259                       # Cumulative packet size per connected master and slave (bytes)
system.tol2bus.pkt_size_system.cpu2.itb.walker.dma::system.l2.cpu_side       487760                       # Cumulative packet size per connected master and slave (bytes)
system.tol2bus.pkt_size_system.cpu2.dtb.walker.dma::system.l2.cpu_side      1414532                       # Cumulative packet size per connected master and slave (bytes)
system.tol2bus.pkt_size_system.cpu3.icache.mem_side::system.l2.cpu_side    447868136                       # Cumulative packet size per connected master and slave (bytes)
system.tol2bus.pkt_size_system.cpu3.dcache.mem_side::system.l2.cpu_side    260754201                       # Cumulative packet size per connected master and slave (bytes)
system.tol2bus.pkt_size_system.cpu3.itb.walker.dma::system.l2.cpu_side       376064                       # Cumulative packet size per connected master and slave (bytes)
system.tol2bus.pkt_size_system.cpu3.dtb.walker.dma::system.l2.cpu_side      1078848                       # Cumulative packet size per connected master and slave (bytes)
system.tol2bus.pkt_size_system.cpu4.icache.mem_side::system.l2.cpu_side    684848516                       # Cumulative packet size per connected master and slave (bytes)
system.tol2bus.pkt_size_system.cpu4.dcache.mem_side::system.l2.cpu_side    382353072                       # Cumulative packet size per connected master and slave (bytes)
system.tol2bus.pkt_size_system.cpu4.itb.walker.dma::system.l2.cpu_side       450836                       # Cumulative packet size per connected master and slave (bytes)
system.tol2bus.pkt_size_system.cpu4.dtb.walker.dma::system.l2.cpu_side      1424580                       # Cumulative packet size per connected master and slave (bytes)
system.tol2bus.pkt_size_system.cpu5.icache.mem_side::system.l2.cpu_side    707626384                       # Cumulative packet size per connected master and slave (bytes)
system.tol2bus.pkt_size_system.cpu5.dcache.mem_side::system.l2.cpu_side    305243194                       # Cumulative packet size per connected master and slave (bytes)
system.tol2bus.pkt_size_system.cpu5.itb.walker.dma::system.l2.cpu_side       217120                       # Cumulative packet size per connected master and slave (bytes)
system.tol2bus.pkt_size_system.cpu5.dtb.walker.dma::system.l2.cpu_side       792732                       # Cumulative packet size per connected master and slave (bytes)
system.tol2bus.pkt_size_system.cpu6.icache.mem_side::system.l2.cpu_side    951218416                       # Cumulative packet size per connected master and slave (bytes)
system.tol2bus.pkt_size_system.cpu6.dcache.mem_side::system.l2.cpu_side    423681689                       # Cumulative packet size per connected master and slave (bytes)
system.tol2bus.pkt_size_system.cpu6.itb.walker.dma::system.l2.cpu_side       498036                       # Cumulative packet size per connected master and slave (bytes)
system.tol2bus.pkt_size_system.cpu6.dtb.walker.dma::system.l2.cpu_side      1391496                       # Cumulative packet size per connected master and slave (bytes)
system.tol2bus.pkt_size_system.cpu7.icache.mem_side::system.l2.cpu_side   1118478648                       # Cumulative packet size per connected master and slave (bytes)
system.tol2bus.pkt_size_system.cpu7.dcache.mem_side::system.l2.cpu_side    507316518                       # Cumulative packet size per connected master and slave (bytes)
system.tol2bus.pkt_size_system.cpu7.itb.walker.dma::system.l2.cpu_side       415372                       # Cumulative packet size per connected master and slave (bytes)
system.tol2bus.pkt_size_system.cpu7.dtb.walker.dma::system.l2.cpu_side      1164816                       # Cumulative packet size per connected master and slave (bytes)
system.tol2bus.pkt_size::total             7602905928                       # Cumulative packet size per connected master and slave (bytes)
system.tol2bus.snoops                          267874                       # Total snoops (count)
system.tol2bus.snoop_fanout::samples         53285886                       # Request fanout histogram
system.tol2bus.snoop_fanout::mean           47.004961                       # Request fanout histogram
system.tol2bus.snoop_fanout::stdev           0.070263                       # Request fanout histogram
system.tol2bus.snoop_fanout::underflows             0      0.00%      0.00% # Request fanout histogram
system.tol2bus.snoop_fanout::0                      0      0.00%      0.00% # Request fanout histogram
system.tol2bus.snoop_fanout::1                      0      0.00%      0.00% # Request fanout histogram
system.tol2bus.snoop_fanout::2                      0      0.00%      0.00% # Request fanout histogram
system.tol2bus.snoop_fanout::3                      0      0.00%      0.00% # Request fanout histogram
system.tol2bus.snoop_fanout::4                      0      0.00%      0.00% # Request fanout histogram
system.tol2bus.snoop_fanout::5                      0      0.00%      0.00% # Request fanout histogram
system.tol2bus.snoop_fanout::6                      0      0.00%      0.00% # Request fanout histogram
system.tol2bus.snoop_fanout::7                      0      0.00%      0.00% # Request fanout histogram
system.tol2bus.snoop_fanout::8                      0      0.00%      0.00% # Request fanout histogram
system.tol2bus.snoop_fanout::9                      0      0.00%      0.00% # Request fanout histogram
system.tol2bus.snoop_fanout::10                     0      0.00%      0.00% # Request fanout histogram
system.tol2bus.snoop_fanout::11                     0      0.00%      0.00% # Request fanout histogram
system.tol2bus.snoop_fanout::12                     0      0.00%      0.00% # Request fanout histogram
system.tol2bus.snoop_fanout::13                     0      0.00%      0.00% # Request fanout histogram
system.tol2bus.snoop_fanout::14                     0      0.00%      0.00% # Request fanout histogram
system.tol2bus.snoop_fanout::15                     0      0.00%      0.00% # Request fanout histogram
system.tol2bus.snoop_fanout::16                     0      0.00%      0.00% # Request fanout histogram
system.tol2bus.snoop_fanout::17                     0      0.00%      0.00% # Request fanout histogram
system.tol2bus.snoop_fanout::18                     0      0.00%      0.00% # Request fanout histogram
system.tol2bus.snoop_fanout::19                     0      0.00%      0.00% # Request fanout histogram
system.tol2bus.snoop_fanout::20                     0      0.00%      0.00% # Request fanout histogram
system.tol2bus.snoop_fanout::21                     0      0.00%      0.00% # Request fanout histogram
system.tol2bus.snoop_fanout::22                     0      0.00%      0.00% # Request fanout histogram
system.tol2bus.snoop_fanout::23                     0      0.00%      0.00% # Request fanout histogram
system.tol2bus.snoop_fanout::24                     0      0.00%      0.00% # Request fanout histogram
system.tol2bus.snoop_fanout::25                     0      0.00%      0.00% # Request fanout histogram
system.tol2bus.snoop_fanout::26                     0      0.00%      0.00% # Request fanout histogram
system.tol2bus.snoop_fanout::27                     0      0.00%      0.00% # Request fanout histogram
system.tol2bus.snoop_fanout::28                     0      0.00%      0.00% # Request fanout histogram
system.tol2bus.snoop_fanout::29                     0      0.00%      0.00% # Request fanout histogram
system.tol2bus.snoop_fanout::30                     0      0.00%      0.00% # Request fanout histogram
system.tol2bus.snoop_fanout::31                     0      0.00%      0.00% # Request fanout histogram
system.tol2bus.snoop_fanout::32                     0      0.00%      0.00% # Request fanout histogram
system.tol2bus.snoop_fanout::33                     0      0.00%      0.00% # Request fanout histogram
system.tol2bus.snoop_fanout::34                     0      0.00%      0.00% # Request fanout histogram
system.tol2bus.snoop_fanout::35                     0      0.00%      0.00% # Request fanout histogram
system.tol2bus.snoop_fanout::36                     0      0.00%      0.00% # Request fanout histogram
system.tol2bus.snoop_fanout::37                     0      0.00%      0.00% # Request fanout histogram
system.tol2bus.snoop_fanout::38                     0      0.00%      0.00% # Request fanout histogram
system.tol2bus.snoop_fanout::39                     0      0.00%      0.00% # Request fanout histogram
system.tol2bus.snoop_fanout::40                     0      0.00%      0.00% # Request fanout histogram
system.tol2bus.snoop_fanout::41                     0      0.00%      0.00% # Request fanout histogram
system.tol2bus.snoop_fanout::42                     0      0.00%      0.00% # Request fanout histogram
system.tol2bus.snoop_fanout::43                     0      0.00%      0.00% # Request fanout histogram
system.tol2bus.snoop_fanout::44                     0      0.00%      0.00% # Request fanout histogram
system.tol2bus.snoop_fanout::45                     0      0.00%      0.00% # Request fanout histogram
system.tol2bus.snoop_fanout::46                     0      0.00%      0.00% # Request fanout histogram
system.tol2bus.snoop_fanout::47              53021511     99.50%     99.50% # Request fanout histogram
system.tol2bus.snoop_fanout::48                264375      0.50%    100.00% # Request fanout histogram
system.tol2bus.snoop_fanout::overflows              0      0.00%    100.00% # Request fanout histogram
system.tol2bus.snoop_fanout::min_value             47                       # Request fanout histogram
system.tol2bus.snoop_fanout::max_value             48                       # Request fanout histogram
system.tol2bus.snoop_fanout::total           53285886                       # Request fanout histogram
system.membus.trans_dist::ReadReq          1121609627                       # Transaction distribution
system.membus.trans_dist::ReadResp         1121609645                       # Transaction distribution
system.membus.trans_dist::WriteReq              58035                       # Transaction distribution
system.membus.trans_dist::WriteResp             58035                       # Transaction distribution
system.membus.trans_dist::Writeback           2024076                       # Transaction distribution
system.membus.trans_dist::SoftPFReq                18                       # Transaction distribution
system.membus.trans_dist::SoftPFResp               18                       # Transaction distribution
system.membus.trans_dist::WriteInvalidateReq       255608                       # Transaction distribution
system.membus.trans_dist::WriteInvalidateResp       255608                       # Transaction distribution
system.membus.trans_dist::UpgradeReq           600575                       # Transaction distribution
system.membus.trans_dist::SCUpgradeReq         306437                       # Transaction distribution
system.membus.trans_dist::UpgradeResp          317042                       # Transaction distribution
system.membus.trans_dist::ReadExReq           1916065                       # Transaction distribution
system.membus.trans_dist::ReadExResp          1655860                       # Transaction distribution
system.membus.trans_dist::LoadLockedReq            18                       # Transaction distribution
system.membus.trans_dist::StoreCondReq             18                       # Transaction distribution
system.membus.trans_dist::StoreCondResp            18                       # Transaction distribution
system.membus.pkt_count_system.iocache.mem_side::system.mem_ctrls.port       528750                       # Packet count per connected master and slave (bytes)
system.membus.pkt_count_system.iocache.mem_side::total       528750                       # Packet count per connected master and slave (bytes)
system.membus.pkt_count_system.l2.mem_side::system.bridge.slave       167094                       # Packet count per connected master and slave (bytes)
system.membus.pkt_count_system.l2.mem_side::system.realview.nvmem.port          178                       # Packet count per connected master and slave (bytes)
system.membus.pkt_count_system.l2.mem_side::system.realview.gic.pio        68354                       # Packet count per connected master and slave (bytes)
system.membus.pkt_count_system.l2.mem_side::system.mem_ctrls.port   2249902327                       # Packet count per connected master and slave (bytes)
system.membus.pkt_count_system.l2.mem_side::total   2250137953                       # Packet count per connected master and slave (bytes)
system.membus.pkt_count::total             2250666703                       # Packet count per connected master and slave (bytes)
system.membus.pkt_size_system.iocache.mem_side::system.mem_ctrls.port     16920000                       # Cumulative packet size per connected master and slave (bytes)
system.membus.pkt_size_system.iocache.mem_side::total     16920000                       # Cumulative packet size per connected master and slave (bytes)
system.membus.pkt_size_system.l2.mem_side::system.bridge.slave       198170                       # Cumulative packet size per connected master and slave (bytes)
system.membus.pkt_size_system.l2.mem_side::system.realview.nvmem.port          356                       # Cumulative packet size per connected master and slave (bytes)
system.membus.pkt_size_system.l2.mem_side::system.realview.gic.pio       136708                       # Cumulative packet size per connected master and slave (bytes)
system.membus.pkt_size_system.l2.mem_side::system.mem_ctrls.port   4802259030                       # Cumulative packet size per connected master and slave (bytes)
system.membus.pkt_size_system.l2.mem_side::total   4802594264                       # Cumulative packet size per connected master and slave (bytes)
system.membus.pkt_size::total              4819514264                       # Cumulative packet size per connected master and slave (bytes)
system.membus.snoops                                0                       # Total snoops (count)
system.membus.snoop_fanout::samples           6454499                       # Request fanout histogram
system.membus.snoop_fanout::mean                    1                       # Request fanout histogram
system.membus.snoop_fanout::stdev                   0                       # Request fanout histogram
system.membus.snoop_fanout::underflows              0      0.00%      0.00% # Request fanout histogram
system.membus.snoop_fanout::0                       0      0.00%      0.00% # Request fanout histogram
system.membus.snoop_fanout::1                 6454499    100.00%    100.00% # Request fanout histogram
system.membus.snoop_fanout::2                       0      0.00%    100.00% # Request fanout histogram
system.membus.snoop_fanout::overflows               0      0.00%    100.00% # Request fanout histogram
system.membus.snoop_fanout::min_value               1                       # Request fanout histogram
[...]
system.cpu7.op_class::SimdFloatAlu                  0      0.00%     77.00% # Class of executed instruction
system.cpu7.op_class::SimdFloatCmp              27001      0.43%     77.43% # Class of executed instruction
system.cpu7.op_class::SimdFloatCvt               6075      0.10%     77.53% # Class of executed instruction
system.cpu7.op_class::SimdFloatDiv                  0      0.00%     77.53% # Class of executed instruction
system.cpu7.op_class::SimdFloatMisc             92725      1.49%     79.02% # Class of executed instruction
system.cpu7.op_class::SimdFloatMult             24508      0.39%     79.41% # Class of executed instruction
system.cpu7.op_class::SimdFloatMultAcc          28015      0.45%     79.86% # Class of executed instruction
system.cpu7.op_class::SimdFloatSqrt                 0      0.00%     79.86% # Class of executed instruction
system.cpu7.op_class::MemRead                  803259     12.89%     92.75% # Class of executed instruction
system.cpu7.op_class::MemWrite                 452025      7.25%    100.00% # Class of executed instruction
system.cpu7.op_class::IprAccess                     0      0.00%    100.00% # Class of executed instruction
system.cpu7.op_class::InstPrefetch                  0      0.00%    100.00% # Class of executed instruction
system.cpu7.op_class::total                   6232610                       # Class of executed instruction
system.cpu7.kern.inst.arm                           0                       # number of arm instructions executed
system.cpu7.kern.inst.quiesce                      11                       # number of quiesce instructions executed
system.cpu7.icache.tags.replacements             3924                       # number of replacements
system.cpu7.icache.tags.tagsinuse                 512                       # Cycle average of tags in use
system.cpu7.icache.tags.total_refs            6347239                       # Total number of references to valid blocks.
system.cpu7.icache.tags.sampled_refs             4436                       # Sample count of references to valid blocks.
system.cpu7.icache.tags.avg_refs          1430.847385                       # Average number of references to valid blocks.
system.cpu7.icache.tags.warmup_cycle                0                       # Cycle when the warmup percentage was hit.
system.cpu7.icache.tags.occ_blocks::cpu7.inst          512                       # Average occupied blocks per requestor
system.cpu7.icache.tags.occ_percent::cpu7.inst            1                       # Average percentage of cache occupancy
system.cpu7.icache.tags.occ_percent::total            1                       # Average percentage of cache occupancy
system.cpu7.icache.tags.occ_task_id_blocks::1024          512                       # Occupied blocks per task id
system.cpu7.icache.tags.age_task_id_blocks_1024::1           13                       # Occupied blocks per task id
system.cpu7.icache.tags.age_task_id_blocks_1024::2            6                       # Occupied blocks per task id
system.cpu7.icache.tags.age_task_id_blocks_1024::3          381                       # Occupied blocks per task id
system.cpu7.icache.tags.age_task_id_blocks_1024::4          112                       # Occupied blocks per task id
system.cpu7.icache.tags.occ_task_id_percent::1024            1                       # Percentage of cache occupancy per task id
system.cpu7.icache.tags.tag_accesses         11635136                       # Number of tag accesses
system.cpu7.icache.tags.data_accesses        11635136                       # Number of data accesses
system.cpu7.icache.ReadReq_hits::cpu7.inst      5811682                       # number of ReadReq hits
system.cpu7.icache.ReadReq_hits::total        5811682                       # number of ReadReq hits
system.cpu7.icache.demand_hits::cpu7.inst      5811682                       # number of demand (read+write) hits
system.cpu7.icache.demand_hits::total         5811682                       # number of demand (read+write) hits
system.cpu7.icache.overall_hits::cpu7.inst      5811682                       # number of overall hits
system.cpu7.icache.overall_hits::total        5811682                       # number of overall hits
system.cpu7.icache.ReadReq_misses::cpu7.inst         3924                       # number of ReadReq misses
system.cpu7.icache.ReadReq_misses::total         3924                       # number of ReadReq misses
system.cpu7.icache.demand_misses::cpu7.inst         3924                       # number of demand (read+write) misses
system.cpu7.icache.demand_misses::total          3924                       # number of demand (read+write) misses
system.cpu7.icache.overall_misses::cpu7.inst         3924                       # number of overall misses
system.cpu7.icache.overall_misses::total         3924                       # number of overall misses
system.cpu7.icache.ReadReq_accesses::cpu7.inst      5815606                       # number of ReadReq accesses(hits+misses)
system.cpu7.icache.ReadReq_accesses::total      5815606                       # number of ReadReq accesses(hits+misses)
system.cpu7.icache.demand_accesses::cpu7.inst      5815606                       # number of demand (read+write) accesses
system.cpu7.icache.demand_accesses::total      5815606                       # number of demand (read+write) accesses
system.cpu7.icache.overall_accesses::cpu7.inst      5815606                       # number of overall (read+write) accesses
system.cpu7.icache.overall_accesses::total      5815606                       # number of overall (read+write) accesses
system.cpu7.icache.ReadReq_miss_rate::cpu7.inst     0.000675                       # miss rate for ReadReq accesses
system.cpu7.icache.ReadReq_miss_rate::total     0.000675                       # miss rate for ReadReq accesses
system.cpu7.icache.demand_miss_rate::cpu7.inst     0.000675                       # miss rate for demand accesses
system.cpu7.icache.demand_miss_rate::total     0.000675                       # miss rate for demand accesses
system.cpu7.icache.overall_miss_rate::cpu7.inst     0.000675                       # miss rate for overall accesses
system.cpu7.icache.overall_miss_rate::total     0.000675                       # miss rate for overall accesses
system.cpu7.icache.blocked_cycles::no_mshrs            0                       # number of cycles access was blocked
system.cpu7.icache.blocked_cycles::no_targets            0                       # number of cycles access was blocked
system.cpu7.icache.blocked::no_mshrs                0                       # number of cycles access was blocked
system.cpu7.icache.blocked::no_targets              0                       # number of cycles access was blocked
system.cpu7.icache.avg_blocked_cycles::no_mshrs          nan                       # average number of cycles each access was blocked
system.cpu7.icache.avg_blocked_cycles::no_targets          nan                       # average number of cycles each access was blocked
system.cpu7.icache.fast_writes                      0                       # number of fast writes performed
system.cpu7.icache.cache_copies                     0                       # number of cache copies performed
system.cpu7.icache.no_allocate_misses               0                       # Number of misses that were no-allocate
system.cpu7.dcache.tags.replacements             2037                       # number of replacements
system.cpu7.dcache.tags.tagsinuse          968.586368                       # Cycle average of tags in use
system.cpu7.dcache.tags.total_refs            4151930                       # Total number of references to valid blocks.
system.cpu7.dcache.tags.sampled_refs             2978                       # Sample count of references to valid blocks.
system.cpu7.dcache.tags.avg_refs          1394.200806                       # Average number of references to valid blocks.
system.cpu7.dcache.tags.warmup_cycle                0                       # Cycle when the warmup percentage was hit.
system.cpu7.dcache.tags.occ_blocks::cpu7.data   968.586368                       # Average occupied blocks per requestor
system.cpu7.dcache.tags.occ_percent::cpu7.data     0.945885                       # Average percentage of cache occupancy
system.cpu7.dcache.tags.occ_percent::total     0.945885                       # Average percentage of cache occupancy
system.cpu7.dcache.tags.occ_task_id_blocks::1024          941                       # Occupied blocks per task id
system.cpu7.dcache.tags.age_task_id_blocks_1024::0            2                       # Occupied blocks per task id
system.cpu7.dcache.tags.age_task_id_blocks_1024::1           36                       # Occupied blocks per task id
system.cpu7.dcache.tags.age_task_id_blocks_1024::2          233                       # Occupied blocks per task id
system.cpu7.dcache.tags.age_task_id_blocks_1024::3          524                       # Occupied blocks per task id
system.cpu7.dcache.tags.age_task_id_blocks_1024::4          146                       # Occupied blocks per task id
system.cpu7.dcache.tags.occ_task_id_percent::1024     0.918945                       # Percentage of cache occupancy per task id
system.cpu7.dcache.tags.tag_accesses          2457082                       # Number of tag accesses
system.cpu7.dcache.tags.data_accesses         2457082                       # Number of data accesses
system.cpu7.dcache.ReadReq_hits::cpu7.data       772977                       # number of ReadReq hits
system.cpu7.dcache.ReadReq_hits::total         772977                       # number of ReadReq hits
system.cpu7.dcache.WriteReq_hits::cpu7.data       449696                       # number of WriteReq hits
system.cpu7.dcache.WriteReq_hits::total        449696                       # number of WriteReq hits
system.cpu7.dcache.SoftPFReq_hits::cpu7.data          302                       # number of SoftPFReq hits
system.cpu7.dcache.SoftPFReq_hits::total          302                       # number of SoftPFReq hits
system.cpu7.dcache.LoadLockedReq_hits::cpu7.data          189                       # number of LoadLockedReq hits
system.cpu7.dcache.LoadLockedReq_hits::total          189                       # number of LoadLockedReq hits
system.cpu7.dcache.StoreCondReq_hits::cpu7.data          166                       # number of StoreCondReq hits
system.cpu7.dcache.StoreCondReq_hits::total          166                       # number of StoreCondReq hits
system.cpu7.dcache.demand_hits::cpu7.data      1222673                       # number of demand (read+write) hits
system.cpu7.dcache.demand_hits::total         1222673                       # number of demand (read+write) hits
system.cpu7.dcache.overall_hits::cpu7.data      1222975                       # number of overall hits
system.cpu7.dcache.overall_hits::total        1222975                       # number of overall hits
system.cpu7.dcache.ReadReq_misses::cpu7.data         2262                       # number of ReadReq misses
system.cpu7.dcache.ReadReq_misses::total         2262                       # number of ReadReq misses
system.cpu7.dcache.WriteReq_misses::cpu7.data         1077                       # number of WriteReq misses
system.cpu7.dcache.WriteReq_misses::total         1077                       # number of WriteReq misses
system.cpu7.dcache.SoftPFReq_misses::cpu7.data           72                       # number of SoftPFReq misses
system.cpu7.dcache.SoftPFReq_misses::total           72                       # number of SoftPFReq misses
system.cpu7.dcache.LoadLockedReq_misses::cpu7.data          150                       # number of LoadLockedReq misses
system.cpu7.dcache.LoadLockedReq_misses::total          150                       # number of LoadLockedReq misses
system.cpu7.dcache.StoreCondReq_misses::cpu7.data          169                       # number of StoreCondReq misses
system.cpu7.dcache.StoreCondReq_misses::total          169                       # number of StoreCondReq misses
system.cpu7.dcache.demand_misses::cpu7.data         3339                       # number of demand (read+write) misses
system.cpu7.dcache.demand_misses::total          3339                       # number of demand (read+write) misses
system.cpu7.dcache.overall_misses::cpu7.data         3411                       # number of overall misses
system.cpu7.dcache.overall_misses::total         3411                       # number of overall misses
system.cpu7.dcache.ReadReq_accesses::cpu7.data       775239                       # number of ReadReq accesses(hits+misses)
system.cpu7.dcache.ReadReq_accesses::total       775239                       # number of ReadReq accesses(hits+misses)
system.cpu7.dcache.WriteReq_accesses::cpu7.data       450773                       # number of WriteReq accesses(hits+misses)
system.cpu7.dcache.WriteReq_accesses::total       450773                       # number of WriteReq accesses(hits+misses)
system.cpu7.dcache.SoftPFReq_accesses::cpu7.data          374                       # number of SoftPFReq accesses(hits+misses)
system.cpu7.dcache.SoftPFReq_accesses::total          374                       # number of SoftPFReq accesses(hits+misses)
system.cpu7.dcache.LoadLockedReq_accesses::cpu7.data          339                       # number of LoadLockedReq accesses(hits+misses)
system.cpu7.dcache.LoadLockedReq_accesses::total          339                       # number of LoadLockedReq accesses(hits+misses)
system.cpu7.dcache.StoreCondReq_accesses::cpu7.data          335                       # number of StoreCondReq accesses(hits+misses)
system.cpu7.dcache.StoreCondReq_accesses::total          335                       # number of StoreCondReq accesses(hits+misses)
system.cpu7.dcache.demand_accesses::cpu7.data      1226012                       # number of demand (read+write) accesses
system.cpu7.dcache.demand_accesses::total      1226012                       # number of demand (read+write) accesses
system.cpu7.dcache.overall_accesses::cpu7.data      1226386                       # number of overall (read+write) accesses
system.cpu7.dcache.overall_accesses::total      1226386                       # number of overall (read+write) accesses
system.cpu7.dcache.ReadReq_miss_rate::cpu7.data     0.002918                       # miss rate for ReadReq accesses
system.cpu7.dcache.ReadReq_miss_rate::total     0.002918                       # miss rate for ReadReq accesses
system.cpu7.dcache.WriteReq_miss_rate::cpu7.data     0.002389                       # miss rate for WriteReq accesses
system.cpu7.dcache.WriteReq_miss_rate::total     0.002389                       # miss rate for WriteReq accesses
system.cpu7.dcache.SoftPFReq_miss_rate::cpu7.data     0.192513                       # miss rate for SoftPFReq accesses
system.cpu7.dcache.SoftPFReq_miss_rate::total     0.192513                       # miss rate for SoftPFReq accesses
system.cpu7.dcache.LoadLockedReq_miss_rate::cpu7.data     0.442478                       # miss rate for LoadLockedReq accesses
system.cpu7.dcache.LoadLockedReq_miss_rate::total     0.442478                       # miss rate for LoadLockedReq accesses
system.cpu7.dcache.StoreCondReq_miss_rate::cpu7.data     0.504478                       # miss rate for StoreCondReq accesses
system.cpu7.dcache.StoreCondReq_miss_rate::total     0.504478                       # miss rate for StoreCondReq accesses
system.cpu7.dcache.demand_miss_rate::cpu7.data     0.002723                       # miss rate for demand accesses
system.cpu7.dcache.demand_miss_rate::total     0.002723                       # miss rate for demand accesses
system.cpu7.dcache.overall_miss_rate::cpu7.data     0.002781                       # miss rate for overall accesses
system.cpu7.dcache.overall_miss_rate::total     0.002781                       # miss rate for overall accesses
system.cpu7.dcache.blocked_cycles::no_mshrs            0                       # number of cycles access was blocked
system.cpu7.dcache.blocked_cycles::no_targets            0                       # number of cycles access was blocked
system.cpu7.dcache.blocked::no_mshrs                0                       # number of cycles access was blocked
system.cpu7.dcache.blocked::no_targets              0                       # number of cycles access was blocked
system.cpu7.dcache.avg_blocked_cycles::no_mshrs          nan                       # average number of cycles each access was blocked
system.cpu7.dcache.avg_blocked_cycles::no_targets          nan                       # average number of cycles each access was blocked
system.cpu7.dcache.fast_writes                      0                       # number of fast writes performed
system.cpu7.dcache.cache_copies                     0                       # number of cache copies performed
system.cpu7.dcache.writebacks::writebacks          345                       # number of writebacks
system.cpu7.dcache.writebacks::total              345                       # number of writebacks
system.cpu7.dcache.no_allocate_misses               0                       # Number of misses that were no-allocate
system.iocache.tags.replacements                    0                       # number of replacements
system.iocache.tags.tagsinuse                      16                       # Cycle average of tags in use
system.iocache.tags.total_refs                      0                       # Total number of references to valid blocks.
system.iocache.tags.sampled_refs                   16                       # Sample count of references to valid blocks.
system.iocache.tags.avg_refs                        0                       # Average number of references to valid blocks.
system.iocache.tags.warmup_cycle                    0                       # Cycle when the warmup percentage was hit.
system.iocache.tags.occ_blocks::realview.ide           16                       # Average occupied blocks per requestor
system.iocache.tags.occ_percent::realview.ide            1                       # Average percentage of cache occupancy
system.iocache.tags.occ_percent::total              1                       # Average percentage of cache occupancy
system.iocache.tags.occ_task_id_blocks::1023           16                       # Occupied blocks per task id
system.iocache.tags.age_task_id_blocks_1023::4           16                       # Occupied blocks per task id
system.iocache.tags.occ_task_id_percent::1023            1                       # Percentage of cache occupancy per task id
system.iocache.tags.tag_accesses                    0                       # Number of tag accesses
system.iocache.tags.data_accesses                   0                       # Number of data accesses
system.iocache.blocked_cycles::no_mshrs             0                       # number of cycles access was blocked
system.iocache.blocked_cycles::no_targets            0                       # number of cycles access was blocked
system.iocache.blocked::no_mshrs                    0                       # number of cycles access was blocked
system.iocache.blocked::no_targets                  0                       # number of cycles access was blocked
system.iocache.avg_blocked_cycles::no_mshrs          nan                       # average number of cycles each access was blocked
system.iocache.avg_blocked_cycles::no_targets          nan                       # average number of cycles each access was blocked
system.iocache.fast_writes                          0                       # number of fast writes performed
system.iocache.cache_copies                         0                       # number of cache copies performed
system.iocache.no_allocate_misses                   0                       # Number of misses that were no-allocate

---------- End Simulation Statistics   ----------
