
---------- Begin Simulation Statistics ----------
sim_seconds                                  2.871958                       # Number of seconds simulated
sim_ticks                                2871958031000                       # Number of ticks simulated
final_tick                               2871958031000                       # Number of ticks from beginning of simulation (restored from checkpoints and never reset)
sim_freq                                 1000000000000                       # Frequency of simulated ticks
host_inst_rate                                1437717                       # Simulator instruction rate (inst/s)
host_op_rate                                  1819324                       # Simulator op (including micro ops) rate (op/s)
host_tick_rate                             4953290583                       # Simulator tick rate (ticks/s)
host_mem_usage                                 896688                       # Number of bytes of host memory used
host_seconds                                   579.81                       # Real time elapsed on the host
sim_insts                                   833599829                       # Number of instructions simulated
sim_ops                                    1054858749                       # Number of ops (including micro ops) simulated
system.voltage_domain.voltage                       1                       # Voltage in Volts
system.clk_domain.clock                          1000                       # Clock period in ticks
system.realview.nvmem.bytes_read::cpu0.inst           20                       # Number of bytes read from this memory
system.realview.nvmem.bytes_read::cpu1.inst           48                       # Number of bytes read from this memory
system.realview.nvmem.bytes_read::cpu2.inst           48                       # Number of bytes read from this memory
system.realview.nvmem.bytes_read::cpu3.inst           48                       # Number of bytes read from this memory
system.realview.nvmem.bytes_read::total           164                       # Number of bytes read from this memory
system.realview.nvmem.bytes_inst_read::cpu0.inst           20                       # Number of instructions bytes read from this memory
system.realview.nvmem.bytes_inst_read::cpu1.inst           48                       # Number of instructions bytes read from this memory
system.realview.nvmem.bytes_inst_read::cpu2.inst           48                       # Number of instructions bytes read from this memory
system.realview.nvmem.bytes_inst_read::cpu3.inst           48                       # Number of instructions bytes read from this memory
system.realview.nvmem.bytes_inst_read::total          164                       # Number of instructions bytes read from this memory
system.realview.nvmem.num_reads::cpu0.inst            5                       # Number of read requests responded to by this memory
system.realview.nvmem.num_reads::cpu1.inst           12                       # Number of read requests responded to by this memory
system.realview.nvmem.num_reads::cpu2.inst           12                       # Number of read requests responded to by this memory
system.realview.nvmem.num_reads::cpu3.inst           12                       # Number of read requests responded to by this memory
system.realview.nvmem.num_reads::total             41                       # Number of read requests responded to by this memory
system.realview.nvmem.bw_read::cpu0.inst            7                       # Total read bandwidth from this memory (bytes/s)
system.realview.nvmem.bw_read::cpu1.inst           17                       # Total read bandwidth from this memory (bytes/s)
system.realview.nvmem.bw_read::cpu2.inst           17                       # Total read bandwidth from this memory (bytes/s)
system.realview.nvmem.bw_read::cpu3.inst           17                       # Total read bandwidth from this memory (bytes/s)
system.realview.nvmem.bw_read::total               57                       # Total read bandwidth from this memory (bytes/s)
system.realview.nvmem.bw_inst_read::cpu0.inst            7                       # Instruction read bandwidth from this memory (bytes/s)
system.realview.nvmem.bw_inst_read::cpu1.inst           17                       # Instruction read bandwidth from this memory (bytes/s)
system.realview.nvmem.bw_inst_read::cpu2.inst           17                       # Instruction read bandwidth from this memory (bytes/s)
system.realview.nvmem.bw_inst_read::cpu3.inst           17                       # Instruction read bandwidth from this memory (bytes/s)
system.realview.nvmem.bw_inst_read::total           57                       # Instruction read bandwidth from this memory (bytes/s)
system.realview.nvmem.bw_total::cpu0.inst            7                       # Total bandwidth to/from this memory (bytes/s)
system.realview.nvmem.bw_total::cpu1.inst           17                       # Total bandwidth to/from this memory (bytes/s)
system.realview.nvmem.bw_total::cpu2.inst           17                       # Total bandwidth to/from this memory (bytes/s)
system.realview.nvmem.bw_total::cpu3.inst           17                       # Total bandwidth to/from this memory (bytes/s)
system.realview.nvmem.bw_total::total              57                       # Total bandwidth to/from this memory (bytes/s)
system.realview.vram.bytes_read::realview.clcd    135782400                       # Number of bytes read from this memory
system.realview.vram.bytes_read::total      135782400                       # Number of bytes read from this memory
system.realview.vram.bytes_written::cpu0.data      1182720                       # Number of bytes written to this memory
system.realview.vram.bytes_written::cpu1.data       614912                       # Number of bytes written to this memory
system.realview.vram.bytes_written::cpu3.data       615680                       # Number of bytes written to this memory
system.realview.vram.bytes_written::total      2413312                       # Number of bytes written to this memory
system.realview.vram.num_reads::realview.clcd     16972800                       # Number of read requests responded to by this memory
system.realview.vram.num_reads::total        16972800                       # Number of read requests responded to by this memory
system.realview.vram.num_writes::cpu0.data       295680                       # Number of write requests responded to by this memory
system.realview.vram.num_writes::cpu1.data       153728                       # Number of write requests responded to by this memory
system.realview.vram.num_writes::cpu3.data       153920                       # Number of write requests responded to by this memory
system.realview.vram.num_writes::total         603328                       # Number of write requests responded to by this memory
system.realview.vram.bw_read::realview.clcd     47278685                       # Total read bandwidth from this memory (bytes/s)
system.realview.vram.bw_read::total          47278685                       # Total read bandwidth from this memory (bytes/s)
system.realview.vram.bw_write::cpu0.data       411817                       # Write bandwidth from this memory (bytes/s)
system.realview.vram.bw_write::cpu1.data       214109                       # Write bandwidth from this memory (bytes/s)
system.realview.vram.bw_write::cpu3.data       214376                       # Write bandwidth from this memory (bytes/s)
system.realview.vram.bw_write::total           840302                       # Write bandwidth from this memory (bytes/s)
system.realview.vram.bw_total::realview.clcd     47278685                       # Total bandwidth to/from this memory (bytes/s)
system.realview.vram.bw_total::cpu0.data       411817                       # Total bandwidth to/from this memory (bytes/s)
system.realview.vram.bw_total::cpu1.data       214109                       # Total bandwidth to/from this memory (bytes/s)
system.realview.vram.bw_total::cpu3.data       214376                       # Total bandwidth to/from this memory (bytes/s)
system.realview.vram.bw_total::total         48118987                       # Total bandwidth to/from this memory (bytes/s)
system.mem_ctrls.bytes_read::realview.ide       381456                       # Number of bytes read from this memory
system.mem_ctrls.bytes_read::cpu0.dtb.walker      1197208                       # Number of bytes read from this memory
system.mem_ctrls.bytes_read::cpu0.itb.walker       372556                       # Number of bytes read from this memory
system.mem_ctrls.bytes_read::cpu0.inst     1054542640                       # Number of bytes read from this memory
system.mem_ctrls.bytes_read::cpu0.data      267693201                       # Number of bytes read from this memory
system.mem_ctrls.bytes_read::cpu1.dtb.walker       475580                       # Number of bytes read from this memory
system.mem_ctrls.bytes_read::cpu1.itb.walker       191172                       # Number of bytes read from this memory
system.mem_ctrls.bytes_read::cpu1.inst     1032028308                       # Number of bytes read from this memory
system.mem_ctrls.bytes_read::cpu1.data      196969905                       # Number of bytes read from this memory
system.mem_ctrls.bytes_read::cpu2.dtb.walker       732200                       # Number of bytes read from this memory
system.mem_ctrls.bytes_read::cpu2.itb.walker       349140                       # Number of bytes read from this memory
system.mem_ctrls.bytes_read::cpu2.inst      761778052                       # Number of bytes read from this memory
system.mem_ctrls.bytes_read::cpu2.data      189183777                       # Number of bytes read from this memory
system.mem_ctrls.bytes_read::cpu3.dtb.walker       628480                       # Number of bytes read from this memory
system.mem_ctrls.bytes_read::cpu3.itb.walker       274608                       # Number of bytes read from this memory
system.mem_ctrls.bytes_read::cpu3.inst      659442708                       # Number of bytes read from this memory
system.mem_ctrls.bytes_read::cpu3.data      167639073                       # Number of bytes read from this memory
system.mem_ctrls.bytes_read::total         4333880064                       # Number of bytes read from this memory
system.mem_ctrls.bytes_inst_read::cpu0.inst   1054542640                       # Number of instructions bytes read from this memory
system.mem_ctrls.bytes_inst_read::cpu1.inst   1032028308                       # Number of instructions bytes read from this memory
system.mem_ctrls.bytes_inst_read::cpu2.inst    761778052                       # Number of instructions bytes read from this memory
system.mem_ctrls.bytes_inst_read::cpu3.inst    659442708                       # Number of instructions bytes read from this memory
system.mem_ctrls.bytes_inst_read::total    3507791708                       # Number of instructions bytes read from this memory
system.mem_ctrls.bytes_written::realview.ide     11041792                       # Number of bytes written to this memory
system.mem_ctrls.bytes_written::cpu0.data    224441584                       # Number of bytes written to this memory
system.mem_ctrls.bytes_written::cpu1.data     99869789                       # Number of bytes written to this memory
system.mem_ctrls.bytes_written::cpu2.data    145805353                       # Number of bytes written to this memory
system.mem_ctrls.bytes_written::cpu3.data    128715992                       # Number of bytes written to this memory
system.mem_ctrls.bytes_written::total       609874510                       # Number of bytes written to this memory
system.mem_ctrls.num_reads::realview.ide         8146                       # Number of read requests responded to by this memory
system.mem_ctrls.num_reads::cpu0.dtb.walker       299302                       # Number of read requests responded to by this memory
system.mem_ctrls.num_reads::cpu0.itb.walker        93139                       # Number of read requests responded to by this memory
system.mem_ctrls.num_reads::cpu0.inst       263635660                       # Number of read requests responded to by this memory
system.mem_ctrls.num_reads::cpu0.data        59407503                       # Number of read requests responded to by this memory
system.mem_ctrls.num_reads::cpu1.dtb.walker       118895                       # Number of read requests responded to by this memory
system.mem_ctrls.num_reads::cpu1.itb.walker        47793                       # Number of read requests responded to by this memory
system.mem_ctrls.num_reads::cpu1.inst       258007077                       # Number of read requests responded to by this memory
system.mem_ctrls.num_reads::cpu1.data        57138663                       # Number of read requests responded to by this memory
system.mem_ctrls.num_reads::cpu2.dtb.walker       183050                       # Number of read requests responded to by this memory
system.mem_ctrls.num_reads::cpu2.itb.walker        87285                       # Number of read requests responded to by this memory
system.mem_ctrls.num_reads::cpu2.inst       190444513                       # Number of read requests responded to by this memory
system.mem_ctrls.num_reads::cpu2.data        44742426                       # Number of read requests responded to by this memory
system.mem_ctrls.num_reads::cpu3.dtb.walker       157120                       # Number of read requests responded to by this memory
system.mem_ctrls.num_reads::cpu3.itb.walker        68652                       # Number of read requests responded to by this memory
system.mem_ctrls.num_reads::cpu3.inst       164860677                       # Number of read requests responded to by this memory
system.mem_ctrls.num_reads::cpu3.data        39050466                       # Number of read requests responded to by this memory
system.mem_ctrls.num_reads::total          1078350367                       # Number of read requests responded to by this memory
system.mem_ctrls.num_writes::realview.ide       172528                       # Number of write requests responded to by this memory
system.mem_ctrls.num_writes::cpu0.data       57062477                       # Number of write requests responded to by this memory
system.mem_ctrls.num_writes::cpu1.data       25360978                       # Number of write requests responded to by this memory
system.mem_ctrls.num_writes::cpu2.data       37195132                       # Number of write requests responded to by this memory
system.mem_ctrls.num_writes::cpu3.data       32769046                       # Number of write requests responded to by this memory
system.mem_ctrls.num_writes::total          152560161                       # Number of write requests responded to by this memory
system.mem_ctrls.bw_read::realview.ide         132821                       # Total read bandwidth from this memory (bytes/s)
system.mem_ctrls.bw_read::cpu0.dtb.walker       416861                       # Total read bandwidth from this memory (bytes/s)
system.mem_ctrls.bw_read::cpu0.itb.walker       129722                       # Total read bandwidth from this memory (bytes/s)
system.mem_ctrls.bw_read::cpu0.inst         367185951                       # Total read bandwidth from this memory (bytes/s)
system.mem_ctrls.bw_read::cpu0.data          93209301                       # Total read bandwidth from this memory (bytes/s)
system.mem_ctrls.bw_read::cpu1.dtb.walker       165594                       # Total read bandwidth from this memory (bytes/s)
system.mem_ctrls.bw_read::cpu1.itb.walker        66565                       # Total read bandwidth from this memory (bytes/s)
system.mem_ctrls.bw_read::cpu1.inst         359346584                       # Total read bandwidth from this memory (bytes/s)
system.mem_ctrls.bw_read::cpu1.data          68583838                       # Total read bandwidth from this memory (bytes/s)
system.mem_ctrls.bw_read::cpu2.dtb.walker       254948                       # Total read bandwidth from this memory (bytes/s)
system.mem_ctrls.bw_read::cpu2.itb.walker       121569                       # Total read bandwidth from this memory (bytes/s)
system.mem_ctrls.bw_read::cpu2.inst         265246930                       # Total read bandwidth from this memory (bytes/s)
system.mem_ctrls.bw_read::cpu2.data          65872751                       # Total read bandwidth from this memory (bytes/s)
system.mem_ctrls.bw_read::cpu3.dtb.walker       218833                       # Total read bandwidth from this memory (bytes/s)
system.mem_ctrls.bw_read::cpu3.itb.walker        95617                       # Total read bandwidth from this memory (bytes/s)
system.mem_ctrls.bw_read::cpu3.inst         229614326                       # Total read bandwidth from this memory (bytes/s)
system.mem_ctrls.bw_read::cpu3.data          58371004                       # Total read bandwidth from this memory (bytes/s)
system.mem_ctrls.bw_read::total            1509033216                       # Total read bandwidth from this memory (bytes/s)
system.mem_ctrls.bw_inst_read::cpu0.inst    367185951                       # Instruction read bandwidth from this memory (bytes/s)
system.mem_ctrls.bw_inst_read::cpu1.inst    359346584                       # Instruction read bandwidth from this memory (bytes/s)
system.mem_ctrls.bw_inst_read::cpu2.inst    265246930                       # Instruction read bandwidth from this memory (bytes/s)
system.mem_ctrls.bw_inst_read::cpu3.inst    229614326                       # Instruction read bandwidth from this memory (bytes/s)
system.mem_ctrls.bw_inst_read::total       1221393791                       # Instruction read bandwidth from this memory (bytes/s)
system.mem_ctrls.bw_write::realview.ide       3844691                       # Write bandwidth from this memory (bytes/s)
system.mem_ctrls.bw_write::cpu0.data         78149326                       # Write bandwidth from this memory (bytes/s)
system.mem_ctrls.bw_write::cpu1.data         34774112                       # Write bandwidth from this memory (bytes/s)
system.mem_ctrls.bw_write::cpu2.data         50768622                       # Write bandwidth from this memory (bytes/s)
system.mem_ctrls.bw_write::cpu3.data         44818201                       # Write bandwidth from this memory (bytes/s)
system.mem_ctrls.bw_write::total            212354952                       # Write bandwidth from this memory (bytes/s)
system.mem_ctrls.bw_total::realview.ide       3977512                       # Total bandwidth to/from this memory (bytes/s)
system.mem_ctrls.bw_total::cpu0.dtb.walker       416861                       # Total bandwidth to/from this memory (bytes/s)
system.mem_ctrls.bw_total::cpu0.itb.walker       129722                       # Total bandwidth to/from this memory (bytes/s)
system.mem_ctrls.bw_total::cpu0.inst        367185951                       # Total bandwidth to/from this memory (bytes/s)
system.mem_ctrls.bw_total::cpu0.data        171358627                       # Total bandwidth to/from this memory (bytes/s)
system.mem_ctrls.bw_total::cpu1.dtb.walker       165594                       # Total bandwidth to/from this memory (bytes/s)
system.mem_ctrls.bw_total::cpu1.itb.walker        66565                       # Total bandwidth to/from this memory (bytes/s)
system.mem_ctrls.bw_total::cpu1.inst        359346584                       # Total bandwidth to/from this memory (bytes/s)
system.mem_ctrls.bw_total::cpu1.data        103357950                       # Total bandwidth to/from this memory (bytes/s)
system.mem_ctrls.bw_total::cpu2.dtb.walker       254948                       # Total bandwidth to/from this memory (bytes/s)
system.mem_ctrls.bw_total::cpu2.itb.walker       121569                       # Total bandwidth to/from this memory (bytes/s)
system.mem_ctrls.bw_total::cpu2.inst        265246930                       # Total bandwidth to/from this memory (bytes/s)
system.mem_ctrls.bw_total::cpu2.data        116641374                       # Total bandwidth to/from this memory (bytes/s)
system.mem_ctrls.bw_total::cpu3.dtb.walker       218833                       # Total bandwidth to/from this memory (bytes/s)
system.mem_ctrls.bw_total::cpu3.itb.walker        95617                       # Total bandwidth to/from this memory (bytes/s)
system.mem_ctrls.bw_total::cpu3.inst        229614326                       # Total bandwidth to/from this memory (bytes/s)
system.mem_ctrls.bw_total::cpu3.data        103189205                       # Total bandwidth to/from this memory (bytes/s)
system.mem_ctrls.bw_total::total           1721388168                       # Total bandwidth to/from this memory (bytes/s)
system.mem_ctrls.readReqs                           0                       # Number of read requests accepted
system.mem_ctrls.writeReqs                          0                       # Number of write requests accepted
system.mem_ctrls.readBursts                         0                       # Number of DRAM read bursts, including those serviced by the write queue
system.mem_ctrls.writeBursts                        0                       # Number of DRAM write bursts, including those merged in the write queue
system.mem_ctrls.bytesReadDRAM                      0                       # Total number of bytes read from DRAM
system.mem_ctrls.bytesReadWrQ                       0                       # Total number of bytes read from write queue
system.mem_ctrls.bytesWritten                       0                       # Total number of bytes written to DRAM
system.mem_ctrls.bytesReadSys                       0                       # Total read bytes from the system interface side
system.mem_ctrls.bytesWrittenSys                    0                       # Total written bytes from the system interface side
system.mem_ctrls.servicedByWrQ                      0                       # Number of DRAM read bursts serviced by the write queue
system.mem_ctrls.mergedWrBursts                     0                       # Number of DRAM write bursts merged with an existing one
system.mem_ctrls.neitherReadNorWriteReqs            0                       # Number of requests that are neither read nor write
system.mem_ctrls.perBankRdBursts::0                 0                       # Per bank write bursts
system.mem_ctrls.perBankRdBursts::1                 0                       # Per bank write bursts
system.mem_ctrls.perBankRdBursts::2                 0                       # Per bank write bursts
system.mem_ctrls.perBankRdBursts::3                 0                       # Per bank write bursts
system.mem_ctrls.perBankRdBursts::4                 0                       # Per bank write bursts
system.mem_ctrls.perBankRdBursts::5                 0                       # Per bank write bursts
system.mem_ctrls.perBankRdBursts::6                 0                       # Per bank write bursts
system.mem_ctrls.perBankRdBursts::7                 0                       # Per bank write bursts
system.mem_ctrls.perBankRdBursts::8                 0                       # Per bank write bursts
system.mem_ctrls.perBankRdBursts::9                 0                       # Per bank write bursts
system.mem_ctrls.perBankRdBursts::10                0                       # Per bank write bursts
system.mem_ctrls.perBankRdBursts::11                0                       # Per bank write bursts
system.mem_ctrls.perBankRdBursts::12                0                       # Per bank write bursts
system.mem_ctrls.perBankRdBursts::13                0                       # Per bank write bursts
system.mem_ctrls.perBankRdBursts::14                0                       # Per bank write bursts
system.mem_ctrls.perBankRdBursts::15                0                       # Per bank write bursts
system.mem_ctrls.perBankWrBursts::0                 0                       # Per bank write bursts
system.mem_ctrls.perBankWrBursts::1                 0                       # Per bank write bursts
system.mem_ctrls.perBankWrBursts::2                 0                       # Per bank write bursts
system.mem_ctrls.perBankWrBursts::3                 0                       # Per bank write bursts
system.mem_ctrls.perBankWrBursts::4                 0                       # Per bank write bursts
system.mem_ctrls.perBankWrBursts::5                 0                       # Per bank write bursts
system.mem_ctrls.perBankWrBursts::6                 0                       # Per bank write bursts
system.mem_ctrls.perBankWrBursts::7                 0                       # Per bank write bursts
system.mem_ctrls.perBankWrBursts::8                 0                       # Per bank write bursts
system.mem_ctrls.perBankWrBursts::9                 0                       # Per bank write bursts
system.mem_ctrls.perBankWrBursts::10                0                       # Per bank write bursts
system.mem_ctrls.perBankWrBursts::11                0                       # Per bank write bursts
system.mem_ctrls.perBankWrBursts::12                0                       # Per bank write bursts
system.mem_ctrls.perBankWrBursts::13                0                       # Per bank write bursts
system.mem_ctrls.perBankWrBursts::14                0                       # Per bank write bursts
system.mem_ctrls.perBankWrBursts::15                0                       # Per bank write bursts
system.mem_ctrls.numRdRetry                         0                       # Number of times read queue was full causing retry
system.mem_ctrls.numWrRetry                         0                       # Number of times write queue was full causing retry
system.mem_ctrls.totGap                             0                       # Total gap between requests
system.mem_ctrls.readPktSize::0                     0                       # Read request sizes (log2)
system.mem_ctrls.readPktSize::1                     0                       # Read request sizes (log2)
system.mem_ctrls.readPktSize::2                     0                       # Read request sizes (log2)
system.mem_ctrls.readPktSize::3                     0                       # Read request sizes (log2)
system.mem_ctrls.readPktSize::4                     0                       # Read request sizes (log2)
system.mem_ctrls.readPktSize::5                     0                       # Read request sizes (log2)
system.mem_ctrls.readPktSize::6                     0                       # Read request sizes (log2)
system.mem_ctrls.writePktSize::0                    0                       # Write request sizes (log2)
system.mem_ctrls.writePktSize::1                    0                       # Write request sizes (log2)
system.mem_ctrls.writePktSize::2                    0                       # Write request sizes (log2)
system.mem_ctrls.writePktSize::3                    0                       # Write request sizes (log2)
system.mem_ctrls.writePktSize::4                    0                       # Write request sizes (log2)
system.mem_ctrls.writePktSize::5                    0                       # Write request sizes (log2)
system.mem_ctrls.writePktSize::6                    0                       # Write request sizes (log2)
system.mem_ctrls.rdQLenPdf::0                       0                       # What read queue length does an incoming req see
system.mem_ctrls.rdQLenPdf::1                       0                       # What read queue length does an incoming req see
system.mem_ctrls.rdQLenPdf::2                       0                       # What read queue length does an incoming req see
system.mem_ctrls.rdQLenPdf::3                       0                       # What read queue length does an incoming req see
system.mem_ctrls.rdQLenPdf::4                       0                       # What read queue length does an incoming req see
system.mem_ctrls.rdQLenPdf::5                       0                       # What read queue length does an incoming req see
system.mem_ctrls.rdQLenPdf::6                       0                       # What read queue length does an incoming req see
system.mem_ctrls.rdQLenPdf::7                       0                       # What read queue length does an incoming req see
system.mem_ctrls.rdQLenPdf::8                       0                       # What read queue length does an incoming req see
system.mem_ctrls.rdQLenPdf::9                       0                       # What read queue length does an incoming req see
system.mem_ctrls.rdQLenPdf::10                      0                       # What read queue length does an incoming req see
system.mem_ctrls.rdQLenPdf::11                      0                       # What read queue length does an incoming req see
system.mem_ctrls.rdQLenPdf::12                      0                       # What read queue length does an incoming req see
system.mem_ctrls.rdQLenPdf::13                      0                       # What read queue length does an incoming req see
system.mem_ctrls.rdQLenPdf::14                      0                       # What read queue length does an incoming req see
system.mem_ctrls.rdQLenPdf::15                      0                       # What read queue length does an incoming req see
system.mem_ctrls.rdQLenPdf::16                      0                       # What read queue length does an incoming req see
system.mem_ctrls.rdQLenPdf::17                      0                       # What read queue length does an incoming req see
system.mem_ctrls.rdQLenPdf::18                      0                       # What read queue length does an incoming req see
system.mem_ctrls.rdQLenPdf::19                      0                       # What read queue length does an incoming req see
system.mem_ctrls.rdQLenPdf::20                      0                       # What read queue length does an incoming req see
system.mem_ctrls.rdQLenPdf::21                      0                       # What read queue length does an incoming req see
system.mem_ctrls.rdQLenPdf::22                      0                       # What read queue length does an incoming req see
system.mem_ctrls.rdQLenPdf::23                      0                       # What read queue length does an incoming req see
system.mem_ctrls.rdQLenPdf::24                      0                       # What read queue length does an incoming req see
system.mem_ctrls.rdQLenPdf::25                      0                       # What read queue length does an incoming req see
system.mem_ctrls.rdQLenPdf::26                      0                       # What read queue length does an incoming req see
system.mem_ctrls.rdQLenPdf::27                      0                       # What read queue length does an incoming req see
system.mem_ctrls.rdQLenPdf::28                      0                       # What read queue length does an incoming req see
system.mem_ctrls.rdQLenPdf::29                      0                       # What read queue length does an incoming req see
system.mem_ctrls.rdQLenPdf::30                      0                       # What read queue length does an incoming req see
system.mem_ctrls.rdQLenPdf::31                      0                       # What read queue length does an incoming req see
system.mem_ctrls.wrQLenPdf::0                       0                       # What write queue length does an incoming req see
system.mem_ctrls.wrQLenPdf::1                       0                       # What write queue length does an incoming req see
system.mem_ctrls.wrQLenPdf::2                       0                       # What write queue length does an incoming req see
system.mem_ctrls.wrQLenPdf::3                       0                       # What write queue length does an incoming req see
system.mem_ctrls.wrQLenPdf::4                       0                       # What write queue length does an incoming req see
system.mem_ctrls.wrQLenPdf::5                       0                       # What write queue length does an incoming req see
system.mem_ctrls.wrQLenPdf::6                       0                       # What write queue length does an incoming req see
system.mem_ctrls.wrQLenPdf::7                       0                       # What write queue length does an incoming req see
system.mem_ctrls.wrQLenPdf::8                       0                       # What write queue length does an incoming req see
system.mem_ctrls.wrQLenPdf::9                       0                       # What write queue length does an incoming req see
system.mem_ctrls.wrQLenPdf::10                      0                       # What write queue length does an incoming req see
system.mem_ctrls.wrQLenPdf::11                      0                       # What write queue length does an incoming req see
system.mem_ctrls.wrQLenPdf::12                      0                       # What write queue length does an incoming req see
system.mem_ctrls.wrQLenPdf::13                      0                       # What write queue length does an incoming req see
system.mem_ctrls.wrQLenPdf::14                      0                       # What write queue length does an incoming req see
system.mem_ctrls.wrQLenPdf::15                      0                       # What write queue length does an incoming req see
system.mem_ctrls.wrQLenPdf::16                      0                       # What write queue length does an incoming req see
system.mem_ctrls.wrQLenPdf::17                      0                       # What write queue length does an incoming req see
system.mem_ctrls.wrQLenPdf::18                      0                       # What write queue length does an incoming req see
system.mem_ctrls.wrQLenPdf::19                      0                       # What write queue length does an incoming req see
system.mem_ctrls.wrQLenPdf::20                      0                       # What write queue length does an incoming req see
system.mem_ctrls.wrQLenPdf::21                      0                       # What write queue length does an incoming req see
system.mem_ctrls.wrQLenPdf::22                      0                       # What write queue length does an incoming req see
system.mem_ctrls.wrQLenPdf::23                      0                       # What write queue length does an incoming req see
system.mem_ctrls.wrQLenPdf::24                      0                       # What write queue length does an incoming req see
system.mem_ctrls.wrQLenPdf::25                      0                       # What write queue length does an incoming req see
system.mem_ctrls.wrQLenPdf::26                      0                       # What write queue length does an incoming req see
system.mem_ctrls.wrQLenPdf::27                      0                       # What write queue length does an incoming req see
system.mem_ctrls.wrQLenPdf::28                      0                       # What write queue length does an incoming req see
system.mem_ctrls.wrQLenPdf::29                      0                       # What write queue length does an incoming req see
system.mem_ctrls.wrQLenPdf::30                      0                       # What write queue length does an incoming req see
system.mem_ctrls.wrQLenPdf::31                      0                       # What write queue length does an incoming req see
system.mem_ctrls.wrQLenPdf::32                      0                       # What write queue length does an incoming req see
system.mem_ctrls.wrQLenPdf::33                      0                       # What write queue length does an incoming req see
system.mem_ctrls.wrQLenPdf::34                      0                       # What write queue length does an incoming req see
system.mem_ctrls.wrQLenPdf::35                      0                       # What write queue length does an incoming req see
system.mem_ctrls.wrQLenPdf::36                      0                       # What write queue length does an incoming req see
system.mem_ctrls.wrQLenPdf::37                      0                       # What write queue length does an incoming req see
system.mem_ctrls.wrQLenPdf::38                      0                       # What write queue length does an incoming req see
system.mem_ctrls.wrQLenPdf::39                      0                       # What write queue length does an incoming req see
system.mem_ctrls.wrQLenPdf::40                      0                       # What write queue length does an incoming req see
system.mem_ctrls.wrQLenPdf::41                      0                       # What write queue length does an incoming req see
system.mem_ctrls.wrQLenPdf::42                      0                       # What write queue length does an incoming req see
system.mem_ctrls.wrQLenPdf::43                      0                       # What write queue length does an incoming req see
system.mem_ctrls.wrQLenPdf::44                      0                       # What write queue length does an incoming req see
system.mem_ctrls.wrQLenPdf::45                      0                       # What write queue length does an incoming req see
system.mem_ctrls.wrQLenPdf::46                      0                       # What write queue length does an incoming req see
system.mem_ctrls.wrQLenPdf::47                      0                       # What write queue length does an incoming req see
system.mem_ctrls.wrQLenPdf::48                      0                       # What write queue length does an incoming req see
system.mem_ctrls.wrQLenPdf::49                      0                       # What write queue length does an incoming req see
system.mem_ctrls.wrQLenPdf::50                      0                       # What write queue length does an incoming req see
system.mem_ctrls.wrQLenPdf::51                      0                       # What write queue length does an incoming req see
system.mem_ctrls.wrQLenPdf::52                      0                       # What write queue length does an incoming req see
system.mem_ctrls.wrQLenPdf::53                      0                       # What write queue length does an incoming req see
system.mem_ctrls.wrQLenPdf::54                      0                       # What write queue length does an incoming req see
system.mem_ctrls.wrQLenPdf::55                      0                       # What write queue length does an incoming req see
system.mem_ctrls.wrQLenPdf::56                      0                       # What write queue length does an incoming req see
system.mem_ctrls.wrQLenPdf::57                      0                       # What write queue length does an incoming req see
system.mem_ctrls.wrQLenPdf::58                      0                       # What write queue length does an incoming req see
system.mem_ctrls.wrQLenPdf::59                      0                       # What write queue length does an incoming req see
system.mem_ctrls.wrQLenPdf::60                      0                       # What write queue length does an incoming req see
system.mem_ctrls.wrQLenPdf::61                      0                       # What write queue length does an incoming req see
system.mem_ctrls.wrQLenPdf::62                      0                       # What write queue length does an incoming req see
system.mem_ctrls.wrQLenPdf::63                      0                       # What write queue length does an incoming req see
system.mem_ctrls.totQLat                            0                       # Total ticks spent queuing
system.mem_ctrls.totMemAccLat                       0                       # Total ticks spent from burst creation until serviced by the DRAM
system.mem_ctrls.totBusLat                          0                       # Total ticks spent in databus transfers
system.mem_ctrls.avgQLat                          nan                       # Average queueing delay per DRAM burst
system.mem_ctrls.avgBusLat                        nan                       # Average bus latency per DRAM burst
system.mem_ctrls.avgMemAccLat                     nan                       # Average memory access latency per DRAM burst
system.mem_ctrls.avgRdBW                         0.00                       # Average DRAM read bandwidth in MiByte/s
system.mem_ctrls.avgWrBW                         0.00                       # Average achieved write bandwidth in MiByte/s
system.mem_ctrls.avgRdBWSys                      0.00                       # Average system read bandwidth in MiByte/s
system.mem_ctrls.avgWrBWSys                      0.00                       # Average system write bandwidth in MiByte/s
system.mem_ctrls.peakBW                      12800.00                       # Theoretical peak bandwidth in MiByte/s
system.mem_ctrls.busUtil                         0.00                       # Data bus utilization in percentage
system.mem_ctrls.busUtilRead                     0.00                       # Data bus utilization in percentage for reads
system.mem_ctrls.busUtilWrite                    0.00                       # Data bus utilization in percentage for writes
system.mem_ctrls.avgRdQLen                       0.00                       # Average read queue length when enqueuing
system.mem_ctrls.avgWrQLen                       0.00                       # Average write queue length when enqueuing
system.mem_ctrls.readRowHits                        0                       # Number of row buffer hits during reads
system.mem_ctrls.writeRowHits                       0                       # Number of row buffer hits during writes
system.mem_ctrls.readRowHitRate                   nan                       # Row buffer hit rate for reads
system.mem_ctrls.writeRowHitRate                  nan                       # Row buffer hit rate for writes
system.mem_ctrls.avgGap                           nan                       # Average gap between requests
system.mem_ctrls.pageHitRate                      nan                       # Row buffer hit rate, read and write combined
system.mem_ctrls.memoryStateTime::IDLE   2776050046250                       # Time in different power states
system.mem_ctrls.memoryStateTime::REF     95900740000                       # Time in different power states
system.mem_ctrls.memoryStateTime::PRE_PDN            0                       # Time in different power states
system.mem_ctrls.memoryStateTime::ACT               0                       # Time in different power states
system.mem_ctrls.memoryStateTime::ACT_PDN            0                       # Time in different power states
system.mem_ctrls.actEnergy::0                       0                       # Energy for activate commands per rank (pJ)
system.mem_ctrls.actEnergy::1                       0                       # Energy for activate commands per rank (pJ)
system.mem_ctrls.preEnergy::0                       0                       # Energy for precharge commands per rank (pJ)
system.mem_ctrls.preEnergy::1                       0                       # Energy for precharge commands per rank (pJ)
system.mem_ctrls.readEnergy::0                      0                       # Energy for read commands per rank (pJ)
system.mem_ctrls.readEnergy::1                      0                       # Energy for read commands per rank (pJ)
system.mem_ctrls.writeEnergy::0                     0                       # Energy for write commands per rank (pJ)
system.mem_ctrls.writeEnergy::1                     0                       # Energy for write commands per rank (pJ)
system.mem_ctrls.refreshEnergy::0        187581847440                       # Energy for refresh commands per rank (pJ)
system.mem_ctrls.refreshEnergy::1        187581847440                       # Energy for refresh commands per rank (pJ)
system.mem_ctrls.actBackEnergy::0         62127081315                       # Energy for active background per rank (pJ)
system.mem_ctrls.actBackEnergy::1         62127081315                       # Energy for active background per rank (pJ)
system.mem_ctrls.preBackEnergy::0        1668673023750                       # Energy for precharge background per rank (pJ)
system.mem_ctrls.preBackEnergy::1        1668673023750                       # Energy for precharge background per rank (pJ)
system.mem_ctrls.totalEnergy::0          1918381952505                       # Total energy per rank (pJ)
system.mem_ctrls.totalEnergy::1          1918381952505                       # Total energy per rank (pJ)
system.mem_ctrls.averagePower::0           667.971739                       # Core power per rank (mW)
system.mem_ctrls.averagePower::1           667.971739                       # Core power per rank (mW)
system.membus.trans_dist::ReadReq          1073734143                       # Transaction distribution
system.membus.trans_dist::ReadResp         1076884877                       # Transaction distribution
system.membus.trans_dist::WriteReq          150062135                       # Transaction distribution
system.membus.trans_dist::WriteResp         150062135                       # Transaction distribution
system.membus.trans_dist::SoftPFReq           1551886                       # Transaction distribution
system.membus.trans_dist::SoftPFResp          1551886                       # Transaction distribution
system.membus.trans_dist::LoadLockedReq       3150734                       # Transaction distribution
system.membus.trans_dist::StoreCondReq        3146989                       # Transaction distribution
system.membus.trans_dist::StoreCondResp       3146989                       # Transaction distribution
system.membus.pkt_count_system.iobridge.master::system.mem_ctrls.port       361348                       # Packet count per connected master and slave (bytes)
system.membus.pkt_count_system.iobridge.master::total       361348                       # Packet count per connected master and slave (bytes)
system.membus.pkt_count_system.cpu0.icache_port::system.realview.nvmem.port           10                       # Packet count per connected master and slave (bytes)
system.membus.pkt_count_system.cpu0.icache_port::system.mem_ctrls.port    527271320                       # Packet count per connected master and slave (bytes)
system.membus.pkt_count_system.cpu0.icache_port::total    527271330                       # Packet count per connected master and slave (bytes)
system.membus.pkt_count_system.cpu0.dcache_port::system.bridge.slave       726922                       # Packet count per connected master and slave (bytes)
system.membus.pkt_count_system.cpu0.dcache_port::system.realview.gic.pio        19608                       # Packet count per connected master and slave (bytes)
system.membus.pkt_count_system.cpu0.dcache_port::system.mem_ctrls.port    232940022                       # Packet count per connected master and slave (bytes)
system.membus.pkt_count_system.cpu0.dcache_port::total    233686552                       # Packet count per connected master and slave (bytes)
system.membus.pkt_count_system.cpu0.itb.walker.dma::system.mem_ctrls.port       186278                       # Packet count per connected master and slave (bytes)
system.membus.pkt_count_system.cpu0.itb.walker.dma::total       186278                       # Packet count per connected master and slave (bytes)
system.membus.pkt_count_system.cpu0.dtb.walker.dma::system.mem_ctrls.port       598604                       # Packet count per connected master and slave (bytes)
system.membus.pkt_count_system.cpu0.dtb.walker.dma::total       598604                       # Packet count per connected master and slave (bytes)
system.membus.pkt_count_system.cpu1.icache_port::system.realview.nvmem.port           24                       # Packet count per connected master and slave (bytes)
system.membus.pkt_count_system.cpu1.icache_port::system.mem_ctrls.port    516014154                       # Packet count per connected master and slave (bytes)
system.membus.pkt_count_system.cpu1.icache_port::total    516014178                       # Packet count per connected master and slave (bytes)
system.membus.pkt_count_system.cpu1.dcache_port::system.bridge.slave       331606                       # Packet count per connected master and slave (bytes)
system.membus.pkt_count_system.cpu1.dcache_port::system.realview.gic.pio        10822                       # Packet count per connected master and slave (bytes)
system.membus.pkt_count_system.cpu1.dcache_port::system.mem_ctrls.port    164999368                       # Packet count per connected master and slave (bytes)
system.membus.pkt_count_system.cpu1.dcache_port::total    165341796                       # Packet count per connected master and slave (bytes)
system.membus.pkt_count_system.cpu1.itb.walker.dma::system.mem_ctrls.port        95586                       # Packet count per connected master and slave (bytes)
system.membus.pkt_count_system.cpu1.itb.walker.dma::total        95586                       # Packet count per connected master and slave (bytes)
system.membus.pkt_count_system.cpu1.dtb.walker.dma::system.mem_ctrls.port       237790                       # Packet count per connected master and slave (bytes)
system.membus.pkt_count_system.cpu1.dtb.walker.dma::total       237790                       # Packet count per connected master and slave (bytes)
system.membus.pkt_count_system.cpu2.icache_port::system.realview.nvmem.port           24                       # Packet count per connected master and slave (bytes)
system.membus.pkt_count_system.cpu2.icache_port::system.mem_ctrls.port    380889026                       # Packet count per connected master and slave (bytes)
system.membus.pkt_count_system.cpu2.icache_port::total    380889050                       # Packet count per connected master and slave (bytes)
system.membus.pkt_count_system.cpu2.dcache_port::system.bridge.slave        30828                       # Packet count per connected master and slave (bytes)
system.membus.pkt_count_system.cpu2.dcache_port::system.realview.gic.pio        12364                       # Packet count per connected master and slave (bytes)
system.membus.pkt_count_system.cpu2.dcache_port::system.mem_ctrls.port    163875210                       # Packet count per connected master and slave (bytes)
system.membus.pkt_count_system.cpu2.dcache_port::total    163918402                       # Packet count per connected master and slave (bytes)
system.membus.pkt_count_system.cpu2.itb.walker.dma::system.mem_ctrls.port       174570                       # Packet count per connected master and slave (bytes)
system.membus.pkt_count_system.cpu2.itb.walker.dma::total       174570                       # Packet count per connected master and slave (bytes)
system.membus.pkt_count_system.cpu2.dtb.walker.dma::system.mem_ctrls.port       366100                       # Packet count per connected master and slave (bytes)
system.membus.pkt_count_system.cpu2.dtb.walker.dma::total       366100                       # Packet count per connected master and slave (bytes)
system.membus.pkt_count_system.cpu3.icache_port::system.realview.nvmem.port           24                       # Packet count per connected master and slave (bytes)
system.membus.pkt_count_system.cpu3.icache_port::system.mem_ctrls.port    329721354                       # Packet count per connected master and slave (bytes)
system.membus.pkt_count_system.cpu3.icache_port::total    329721378                       # Packet count per connected master and slave (bytes)
system.membus.pkt_count_system.cpu3.dcache_port::system.bridge.slave       329576                       # Packet count per connected master and slave (bytes)
system.membus.pkt_count_system.cpu3.dcache_port::system.realview.gic.pio         8578                       # Packet count per connected master and slave (bytes)
system.membus.pkt_count_system.cpu3.dcache_port::system.mem_ctrls.port    143639114                       # Packet count per connected master and slave (bytes)
system.membus.pkt_count_system.cpu3.dcache_port::total    143977268                       # Packet count per connected master and slave (bytes)
system.membus.pkt_count_system.cpu3.itb.walker.dma::system.mem_ctrls.port       137304                       # Packet count per connected master and slave (bytes)
system.membus.pkt_count_system.cpu3.itb.walker.dma::total       137304                       # Packet count per connected master and slave (bytes)
system.membus.pkt_count_system.cpu3.dtb.walker.dma::system.mem_ctrls.port       314240                       # Packet count per connected master and slave (bytes)
system.membus.pkt_count_system.cpu3.dtb.walker.dma::total       314240                       # Packet count per connected master and slave (bytes)
system.membus.pkt_count::total             2463291774                       # Packet count per connected master and slave (bytes)
system.membus.pkt_size_system.iobridge.master::system.mem_ctrls.port     11423248                       # Cumulative packet size per connected master and slave (bytes)
system.membus.pkt_size_system.iobridge.master::total     11423248                       # Cumulative packet size per connected master and slave (bytes)
system.membus.pkt_size_system.cpu0.icache_port::system.realview.nvmem.port           20                       # Cumulative packet size per connected master and slave (bytes)
system.membus.pkt_size_system.cpu0.icache_port::system.mem_ctrls.port   1054542640                       # Cumulative packet size per connected master and slave (bytes)
system.membus.pkt_size_system.cpu0.icache_port::total   1054542660                       # Cumulative packet size per connected master and slave (bytes)
system.membus.pkt_size_system.cpu0.dcache_port::system.bridge.slave      1378534                       # Cumulative packet size per connected master and slave (bytes)
system.membus.pkt_size_system.cpu0.dcache_port::system.realview.gic.pio        39216                       # Cumulative packet size per connected master and slave (bytes)
system.membus.pkt_size_system.cpu0.dcache_port::system.mem_ctrls.port    492134909                       # Cumulative packet size per connected master and slave (bytes)
system.membus.pkt_size_system.cpu0.dcache_port::total    493552659                       # Cumulative packet size per connected master and slave (bytes)
system.membus.pkt_size_system.cpu0.itb.walker.dma::system.mem_ctrls.port       372556                       # Cumulative packet size per connected master and slave (bytes)
system.membus.pkt_size_system.cpu0.itb.walker.dma::total       372556                       # Cumulative packet size per connected master and slave (bytes)
system.membus.pkt_size_system.cpu0.dtb.walker.dma::system.mem_ctrls.port      1197208                       # Cumulative packet size per connected master and slave (bytes)
system.membus.pkt_size_system.cpu0.dtb.walker.dma::total      1197208                       # Cumulative packet size per connected master and slave (bytes)
system.membus.pkt_size_system.cpu1.icache_port::system.realview.nvmem.port           48                       # Cumulative packet size per connected master and slave (bytes)
system.membus.pkt_size_system.cpu1.icache_port::system.mem_ctrls.port   1032028308                       # Cumulative packet size per connected master and slave (bytes)
system.membus.pkt_size_system.cpu1.icache_port::total   1032028356                       # Cumulative packet size per connected master and slave (bytes)
system.membus.pkt_size_system.cpu1.dcache_port::system.bridge.slave       649216                       # Cumulative packet size per connected master and slave (bytes)
system.membus.pkt_size_system.cpu1.dcache_port::system.realview.gic.pio        21644                       # Cumulative packet size per connected master and slave (bytes)
system.membus.pkt_size_system.cpu1.dcache_port::system.mem_ctrls.port    296839866                       # Cumulative packet size per connected master and slave (bytes)
system.membus.pkt_size_system.cpu1.dcache_port::total    297510726                       # Cumulative packet size per connected master and slave (bytes)
system.membus.pkt_size_system.cpu1.itb.walker.dma::system.mem_ctrls.port       191172                       # Cumulative packet size per connected master and slave (bytes)
system.membus.pkt_size_system.cpu1.itb.walker.dma::total       191172                       # Cumulative packet size per connected master and slave (bytes)
system.membus.pkt_size_system.cpu1.dtb.walker.dma::system.mem_ctrls.port       475580                       # Cumulative packet size per connected master and slave (bytes)
system.membus.pkt_size_system.cpu1.dtb.walker.dma::total       475580                       # Cumulative packet size per connected master and slave (bytes)
system.membus.pkt_size_system.cpu2.icache_port::system.realview.nvmem.port           48                       # Cumulative packet size per connected master and slave (bytes)
system.membus.pkt_size_system.cpu2.icache_port::system.mem_ctrls.port    761778052                       # Cumulative packet size per connected master and slave (bytes)
system.membus.pkt_size_system.cpu2.icache_port::total    761778100                       # Cumulative packet size per connected master and slave (bytes)
system.membus.pkt_size_system.cpu2.dcache_port::system.bridge.slave        43197                       # Cumulative packet size per connected master and slave (bytes)
system.membus.pkt_size_system.cpu2.dcache_port::system.realview.gic.pio        24728                       # Cumulative packet size per connected master and slave (bytes)
system.membus.pkt_size_system.cpu2.dcache_port::system.mem_ctrls.port    334989318                       # Cumulative packet size per connected master and slave (bytes)
system.membus.pkt_size_system.cpu2.dcache_port::total    335057243                       # Cumulative packet size per connected master and slave (bytes)
system.membus.pkt_size_system.cpu2.itb.walker.dma::system.mem_ctrls.port       349140                       # Cumulative packet size per connected master and slave (bytes)
system.membus.pkt_size_system.cpu2.itb.walker.dma::total       349140                       # Cumulative packet size per connected master and slave (bytes)
system.membus.pkt_size_system.cpu2.dtb.walker.dma::system.mem_ctrls.port       732200                       # Cumulative packet size per connected master and slave (bytes)
system.membus.pkt_size_system.cpu2.dtb.walker.dma::total       732200                       # Cumulative packet size per connected master and slave (bytes)
system.membus.pkt_size_system.cpu3.icache_port::system.realview.nvmem.port           48                       # Cumulative packet size per connected master and slave (bytes)
system.membus.pkt_size_system.cpu3.icache_port::system.mem_ctrls.port    659442708                       # Cumulative packet size per connected master and slave (bytes)
system.membus.pkt_size_system.cpu3.icache_port::total    659442756                       # Cumulative packet size per connected master and slave (bytes)
system.membus.pkt_size_system.cpu3.dcache_port::system.bridge.slave       650051                       # Cumulative packet size per connected master and slave (bytes)
system.membus.pkt_size_system.cpu3.dcache_port::system.realview.gic.pio        17156                       # Cumulative packet size per connected master and slave (bytes)
system.membus.pkt_size_system.cpu3.dcache_port::system.mem_ctrls.port    296355245                       # Cumulative packet size per connected master and slave (bytes)
system.membus.pkt_size_system.cpu3.dcache_port::total    297022452                       # Cumulative packet size per connected master and slave (bytes)
system.membus.pkt_size_system.cpu3.itb.walker.dma::system.mem_ctrls.port       274608                       # Cumulative packet size per connected master and slave (bytes)
system.membus.pkt_size_system.cpu3.itb.walker.dma::total       274608                       # Cumulative packet size per connected master and slave (bytes)
system.membus.pkt_size_system.cpu3.dtb.walker.dma::system.mem_ctrls.port       628480                       # Cumulative packet size per connected master and slave (bytes)
system.membus.pkt_size_system.cpu3.dtb.walker.dma::total       628480                       # Cumulative packet size per connected master and slave (bytes)
system.membus.pkt_size::total              4946579144                       # Cumulative packet size per connected master and slave (bytes)
system.membus.snoops                                0                       # Total snoops (count)
system.membus.snoop_fanout::samples        1230896280                       # Request fanout histogram
system.membus.snoop_fanout::mean            19.712586                       # Request fanout histogram
system.membus.snoop_fanout::stdev            0.452556                       # Request fanout histogram
system.membus.snoop_fanout::underflows              0      0.00%      0.00% # Request fanout histogram
system.membus.snoop_fanout::0                       0      0.00%      0.00% # Request fanout histogram
system.membus.snoop_fanout::1                       0      0.00%      0.00% # Request fanout histogram
system.membus.snoop_fanout::2                       0      0.00%      0.00% # Request fanout histogram
system.membus.snoop_fanout::3                       0      0.00%      0.00% # Request fanout histogram
system.membus.snoop_fanout::4                       0      0.00%      0.00% # Request fanout histogram
system.membus.snoop_fanout::5                       0      0.00%      0.00% # Request fanout histogram
system.membus.snoop_fanout::6                       0      0.00%      0.00% # Request fanout histogram
system.membus.snoop_fanout::7                       0      0.00%      0.00% # Request fanout histogram
system.membus.snoop_fanout::8                       0      0.00%      0.00% # Request fanout histogram
system.membus.snoop_fanout::9                       0      0.00%      0.00% # Request fanout histogram
system.membus.snoop_fanout::10                      0      0.00%      0.00% # Request fanout histogram
system.membus.snoop_fanout::11                      0      0.00%      0.00% # Request fanout histogram
system.membus.snoop_fanout::12                      0      0.00%      0.00% # Request fanout histogram
system.membus.snoop_fanout::13                      0      0.00%      0.00% # Request fanout histogram
system.membus.snoop_fanout::14                      0      0.00%      0.00% # Request fanout histogram
system.membus.snoop_fanout::15                      0      0.00%      0.00% # Request fanout histogram
system.membus.snoop_fanout::16                      0      0.00%      0.00% # Request fanout histogram
system.membus.snoop_fanout::17                      0      0.00%      0.00% # Request fanout histogram
system.membus.snoop_fanout::18                      0      0.00%      0.00% # Request fanout histogram
system.membus.snoop_fanout::19              353776668     28.74%     28.74% # Request fanout histogram
system.membus.snoop_fanout::20              877119612     71.26%    100.00% # Request fanout histogram
system.membus.snoop_fanout::overflows               0      0.00%    100.00% # Request fanout histogram
system.membus.snoop_fanout::min_value              19                       # Request fanout histogram
system.membus.snoop_fanout::max_value              20                       # Request fanout histogram
system.membus.snoop_fanout::total          1230896280                       # Request fanout histogram
system.realview.ethernet.descDMAReads               0                       # Number of descriptors the device read w/ DMA
system.realview.ethernet.descDMAWrites              0                       # Number of descriptors the device wrote w/ DMA
system.realview.ethernet.descDmaReadBytes            0                       # number of descriptor bytes read w/ DMA
system.realview.ethernet.descDmaWriteBytes            0                       # number of descriptor bytes write w/ DMA
system.realview.ethernet.postedSwi                  0                       # number of software interrupts posted to CPU
system.realview.ethernet.coalescedSwi             nan                       # average number of Swi's coalesced into each post
system.realview.ethernet.totalSwi                   0                       # total number of Swi written to ISR
system.realview.ethernet.postedRxIdle               0                       # number of rxIdle interrupts posted to CPU
system.realview.ethernet.coalescedRxIdle          nan                       # average number of RxIdle's coalesced into each post
system.realview.ethernet.totalRxIdle                0                       # total number of RxIdle written to ISR
system.realview.ethernet.postedRxOk                 0                       # number of RxOk interrupts posted to CPU
system.realview.ethernet.coalescedRxOk            nan                       # average number of RxOk's coalesced into each post
system.realview.ethernet.totalRxOk                  0                       # total number of RxOk written to ISR
system.realview.ethernet.postedRxDesc               0                       # number of RxDesc interrupts posted to CPU
system.realview.ethernet.coalescedRxDesc          nan                       # average number of RxDesc's coalesced into each post
system.realview.ethernet.totalRxDesc                0                       # total number of RxDesc written to ISR
system.realview.ethernet.postedTxOk                 0                       # number of TxOk interrupts posted to CPU
system.realview.ethernet.coalescedTxOk            nan                       # average number of TxOk's coalesced into each post
system.realview.ethernet.totalTxOk                  0                       # total number of TxOk written to ISR
system.realview.ethernet.postedTxIdle               0                       # number of TxIdle interrupts posted to CPU
system.realview.ethernet.coalescedTxIdle          nan                       # average number of TxIdle's coalesced into each post
system.realview.ethernet.totalTxIdle                0                       # total number of TxIdle written to ISR
system.realview.ethernet.postedTxDesc               0                       # number of TxDesc interrupts posted to CPU
system.realview.ethernet.coalescedTxDesc          nan                       # average number of TxDesc's coalesced into each post
system.realview.ethernet.totalTxDesc                0                       # total number of TxDesc written to ISR
system.realview.ethernet.postedRxOrn                0                       # number of RxOrn posted to CPU
system.realview.ethernet.coalescedRxOrn           nan                       # average number of RxOrn's coalesced into each post
system.realview.ethernet.totalRxOrn                 0                       # total number of RxOrn written to ISR
system.realview.ethernet.coalescedTotal           nan                       # average number of interrupts coalesced into each post
system.realview.ethernet.postedInterrupts            0                       # number of posts to CPU
system.realview.ethernet.droppedPackets             0                       # number of packets dropped
system.cf0.dma_read_full_pages                      7                       # Number of full page size DMA reads (not PRD).
system.cf0.dma_read_bytes                      361472                       # Number of bytes transfered via DMA reads (not PRD).
system.cf0.dma_read_txs                           313                       # Number of DMA read transactions (not PRD).
system.cf0.dma_write_full_pages                  2471                       # Number of full page size DMA writes.
system.cf0.dma_write_bytes                   11041792                       # Number of bytes transfered via DMA writes.
system.cf0.dma_write_txs                         3211                       # Number of DMA write transactions.
system.cpu_voltage_domain.voltage                   1                       # Voltage in Volts
system.iobus.trans_dist::ReadReq             17053232                       # Transaction distribution
system.iobus.trans_dist::ReadResp            17053232                       # Transaction distribution
system.iobus.trans_dist::WriteReq              809708                       # Transaction distribution
system.iobus.trans_dist::WriteResp             809708                       # Transaction distribution
system.iobus.pkt_count_system.bridge.master::system.realview.uart.pio        47484                       # Packet count per connected master and slave (bytes)
system.iobus.pkt_count_system.bridge.master::system.realview.realview_io.pio        38890                       # Packet count per connected master and slave (bytes)
system.iobus.pkt_count_system.bridge.master::system.realview.timer0.pio        27562                       # Packet count per connected master and slave (bytes)
system.iobus.pkt_count_system.bridge.master::system.realview.clcd.pio           36                       # Packet count per connected master and slave (bytes)
system.iobus.pkt_count_system.bridge.master::system.realview.kmi0.pio          120                       # Packet count per connected master and slave (bytes)
system.iobus.pkt_count_system.bridge.master::system.realview.kmi1.pio          732                       # Packet count per connected master and slave (bytes)
system.iobus.pkt_count_system.bridge.master::system.realview.cf_ctrl.pio          112                       # Packet count per connected master and slave (bytes)
system.iobus.pkt_count_system.bridge.master::system.realview.rtc.pio           26                       # Packet count per connected master and slave (bytes)
system.iobus.pkt_count_system.bridge.master::system.realview.vram.port      1206656                       # Packet count per connected master and slave (bytes)
system.iobus.pkt_count_system.bridge.master::system.realview.uart1_fake.pio           16                       # Packet count per connected master and slave (bytes)
system.iobus.pkt_count_system.bridge.master::system.realview.uart2_fake.pio           16                       # Packet count per connected master and slave (bytes)
system.iobus.pkt_count_system.bridge.master::system.realview.uart3_fake.pio           16                       # Packet count per connected master and slave (bytes)
system.iobus.pkt_count_system.bridge.master::system.realview.sp810_fake.pio            4                       # Packet count per connected master and slave (bytes)
system.iobus.pkt_count_system.bridge.master::system.realview.watchdog_fake.pio           16                       # Packet count per connected master and slave (bytes)
system.iobus.pkt_count_system.bridge.master::system.realview.aaci_fake.pio           16                       # Packet count per connected master and slave (bytes)
system.iobus.pkt_count_system.bridge.master::system.realview.lan_fake.pio            2                       # Packet count per connected master and slave (bytes)
system.iobus.pkt_count_system.bridge.master::system.realview.usb_fake.pio           10                       # Packet count per connected master and slave (bytes)
system.iobus.pkt_count_system.bridge.master::system.realview.mmc_fake.pio           16                       # Packet count per connected master and slave (bytes)
system.iobus.pkt_count_system.bridge.master::system.realview.ide.pio        54456                       # Packet count per connected master and slave (bytes)
system.iobus.pkt_count_system.bridge.master::system.realview.ide-pciconf          234                       # Packet count per connected master and slave (bytes)
system.iobus.pkt_count_system.bridge.master::system.realview.ethernet.pio        42264                       # Packet count per connected master and slave (bytes)
system.iobus.pkt_count_system.bridge.master::system.realview.ethernet-pciconf          188                       # Packet count per connected master and slave (bytes)
system.iobus.pkt_count_system.bridge.master::system.realview.pciconfig.pio           60                       # Packet count per connected master and slave (bytes)
system.iobus.pkt_count_system.bridge.master::total      1418932                       # Packet count per connected master and slave (bytes)
system.iobus.pkt_count_system.realview.clcd.dma::system.realview.vram.port     33945600                       # Packet count per connected master and slave (bytes)
system.iobus.pkt_count_system.realview.clcd.dma::total     33945600                       # Packet count per connected master and slave (bytes)
system.iobus.pkt_count_system.realview.ide.dma::system.iobridge.slave       361348                       # Packet count per connected master and slave (bytes)
system.iobus.pkt_count_system.realview.ide.dma::total       361348                       # Packet count per connected master and slave (bytes)
system.iobus.pkt_count::total                35725880                       # Packet count per connected master and slave (bytes)
system.iobus.pkt_size_system.bridge.master::system.realview.uart.pio        57241                       # Cumulative packet size per connected master and slave (bytes)
system.iobus.pkt_size_system.bridge.master::system.realview.realview_io.pio        77780                       # Cumulative packet size per connected master and slave (bytes)
system.iobus.pkt_size_system.bridge.master::system.realview.timer0.pio        55124                       # Cumulative packet size per connected master and slave (bytes)
system.iobus.pkt_size_system.bridge.master::system.realview.clcd.pio           72                       # Cumulative packet size per connected master and slave (bytes)
system.iobus.pkt_size_system.bridge.master::system.realview.kmi0.pio           84                       # Cumulative packet size per connected master and slave (bytes)
system.iobus.pkt_size_system.bridge.master::system.realview.kmi1.pio          390                       # Cumulative packet size per connected master and slave (bytes)
system.iobus.pkt_size_system.bridge.master::system.realview.cf_ctrl.pio           56                       # Cumulative packet size per connected master and slave (bytes)
system.iobus.pkt_size_system.bridge.master::system.realview.rtc.pio           52                       # Cumulative packet size per connected master and slave (bytes)
system.iobus.pkt_size_system.bridge.master::system.realview.vram.port      2413312                       # Cumulative packet size per connected master and slave (bytes)
system.iobus.pkt_size_system.bridge.master::system.realview.uart1_fake.pio           32                       # Cumulative packet size per connected master and slave (bytes)
system.iobus.pkt_size_system.bridge.master::system.realview.uart2_fake.pio           32                       # Cumulative packet size per connected master and slave (bytes)
system.iobus.pkt_size_system.bridge.master::system.realview.uart3_fake.pio           32                       # Cumulative packet size per connected master and slave (bytes)
system.iobus.pkt_size_system.bridge.master::system.realview.sp810_fake.pio            8                       # Cumulative packet size per connected master and slave (bytes)
system.iobus.pkt_size_system.bridge.master::system.realview.watchdog_fake.pio           32                       # Cumulative packet size per connected master and slave (bytes)
system.iobus.pkt_size_system.bridge.master::system.realview.aaci_fake.pio           32                       # Cumulative packet size per connected master and slave (bytes)
system.iobus.pkt_size_system.bridge.master::system.realview.lan_fake.pio            4                       # Cumulative packet size per connected master and slave (bytes)
system.iobus.pkt_size_system.bridge.master::system.realview.usb_fake.pio           20                       # Cumulative packet size per connected master and slave (bytes)
system.iobus.pkt_size_system.bridge.master::system.realview.mmc_fake.pio           32                       # Cumulative packet size per connected master and slave (bytes)
system.iobus.pkt_size_system.bridge.master::system.realview.ide.pio        31449                       # Cumulative packet size per connected master and slave (bytes)
system.iobus.pkt_size_system.bridge.master::system.realview.ide-pciconf          289                       # Cumulative packet size per connected master and slave (bytes)
system.iobus.pkt_size_system.bridge.master::system.realview.ethernet.pio        84528                       # Cumulative packet size per connected master and slave (bytes)
system.iobus.pkt_size_system.bridge.master::system.realview.ethernet-pciconf          277                       # Cumulative packet size per connected master and slave (bytes)
system.iobus.pkt_size_system.bridge.master::system.realview.pciconfig.pio          120                       # Cumulative packet size per connected master and slave (bytes)
system.iobus.pkt_size_system.bridge.master::total      2720998                       # Cumulative packet size per connected master and slave (bytes)
system.iobus.pkt_size_system.realview.clcd.dma::system.realview.vram.port    135782400                       # Cumulative packet size per connected master and slave (bytes)
system.iobus.pkt_size_system.realview.clcd.dma::total    135782400                       # Cumulative packet size per connected master and slave (bytes)
system.iobus.pkt_size_system.realview.ide.dma::system.iobridge.slave     11423248                       # Cumulative packet size per connected master and slave (bytes)
system.iobus.pkt_size_system.realview.ide.dma::total     11423248                       # Cumulative packet size per connected master and slave (bytes)
system.iobus.pkt_size::total                149926646                       # Cumulative packet size per connected master and slave (bytes)
system.cpu_clk_domain.clock                       500                       # Clock period in ticks
system.cpu0.dstage2_mmu.stage2_tlb.inst_hits            0                       # ITB inst hits
system.cpu0.dstage2_mmu.stage2_tlb.inst_misses            0                       # ITB inst misses
system.cpu0.dstage2_mmu.stage2_tlb.read_hits            0                       # DTB read hits
system.cpu0.dstage2_mmu.stage2_tlb.read_misses            0                       # DTB read misses
system.cpu0.dstage2_mmu.stage2_tlb.write_hits            0                       # DTB write hits
system.cpu0.dstage2_mmu.stage2_tlb.write_misses            0                       # DTB write misses
system.cpu0.dstage2_mmu.stage2_tlb.flush_tlb            0                       # Number of times complete TLB was flushed
system.cpu0.dstage2_mmu.stage2_tlb.flush_tlb_mva            0                       # Number of times TLB was flushed by MVA
system.cpu0.dstage2_mmu.stage2_tlb.flush_tlb_mva_asid            0                       # Number of times TLB was flushed by MVA & ASID
system.cpu0.dstage2_mmu.stage2_tlb.flush_tlb_asid            0                       # Number of times TLB was flushed by ASID
system.cpu0.dstage2_mmu.stage2_tlb.flush_entries            0                       # Number of entries that have been flushed from TLB
system.cpu0.dstage2_mmu.stage2_tlb.align_faults            0                       # Number of TLB faults due to alignment restrictions
system.cpu0.dstage2_mmu.stage2_tlb.prefetch_faults            0                       # Number of TLB faults due to prefetch
system.cpu0.dstage2_mmu.stage2_tlb.domain_faults            0                       # Number of TLB faults due to domain restrictions
[...]
system.cpu2.op_class::IntAlu                104391112     90.77%     90.78% # Class of executed instruction
system.cpu2.op_class::IntMult                  894054      0.78%     91.56% # Class of executed instruction
system.cpu2.op_class::IntDiv                        0      0.00%     91.56% # Class of executed instruction
system.cpu2.op_class::FloatAdd                      0      0.00%     91.56% # Class of executed instruction
system.cpu2.op_class::FloatCmp                      0      0.00%     91.56% # Class of executed instruction
system.cpu2.op_class::FloatCvt                      0      0.00%     91.56% # Class of executed instruction
system.cpu2.op_class::FloatMult                     0      0.00%     91.56% # Class of executed instruction
system.cpu2.op_class::FloatDiv                      0      0.00%     91.56% # Class of executed instruction
system.cpu2.op_class::FloatSqrt                     0      0.00%     91.56% # Class of executed instruction
system.cpu2.op_class::SimdAdd                       0      0.00%     91.56% # Class of executed instruction
system.cpu2.op_class::SimdAddAcc                    0      0.00%     91.56% # Class of executed instruction
system.cpu2.op_class::SimdAlu                       0      0.00%     91.56% # Class of executed instruction
system.cpu2.op_class::SimdCmp                       0      0.00%     91.56% # Class of executed instruction
system.cpu2.op_class::SimdCvt                       0      0.00%     91.56% # Class of executed instruction
system.cpu2.op_class::SimdMisc                      0      0.00%     91.56% # Class of executed instruction
system.cpu2.op_class::SimdMult                      0      0.00%     91.56% # Class of executed instruction
system.cpu2.op_class::SimdMultAcc                   0      0.00%     91.56% # Class of executed instruction
system.cpu2.op_class::SimdShift                     0      0.00%     91.56% # Class of executed instruction
system.cpu2.op_class::SimdShiftAcc                  0      0.00%     91.56% # Class of executed instruction
system.cpu2.op_class::SimdSqrt                      0      0.00%     91.56% # Class of executed instruction
system.cpu2.op_class::SimdFloatAdd                  0      0.00%     91.56% # Class of executed instruction
system.cpu2.op_class::SimdFloatAlu                  0      0.00%     91.56% # Class of executed instruction
system.cpu2.op_class::SimdFloatCmp                  0      0.00%     91.56% # Class of executed instruction
system.cpu2.op_class::SimdFloatCvt                  0      0.00%     91.56% # Class of executed instruction
system.cpu2.op_class::SimdFloatDiv                  0      0.00%     91.56% # Class of executed instruction
system.cpu2.op_class::SimdFloatMisc               420      0.00%     91.56% # Class of executed instruction
system.cpu2.op_class::SimdFloatMult                 0      0.00%     91.56% # Class of executed instruction
system.cpu2.op_class::SimdFloatMultAcc              0      0.00%     91.56% # Class of executed instruction
system.cpu2.op_class::SimdFloatSqrt                 0      0.00%     91.56% # Class of executed instruction
system.cpu2.op_class::MemRead                 5942038      5.17%     96.73% # Class of executed instruction
system.cpu2.op_class::MemWrite                3765311      3.27%    100.00% # Class of executed instruction
system.cpu2.op_class::IprAccess                     0      0.00%    100.00% # Class of executed instruction
system.cpu2.op_class::InstPrefetch                  0      0.00%    100.00% # Class of executed instruction
system.cpu2.op_class::total                 115005971                       # Class of executed instruction
system.cpu2.kern.inst.arm                           0                       # number of arm instructions executed
system.cpu2.kern.inst.quiesce                    7215                       # number of quiesce instructions executed
system.cpu3.dstage2_mmu.stage2_tlb.inst_hits            0                       # ITB inst hits
system.cpu3.dstage2_mmu.stage2_tlb.inst_misses            0                       # ITB inst misses
system.cpu3.dstage2_mmu.stage2_tlb.read_hits            0                       # DTB read hits
system.cpu3.dstage2_mmu.stage2_tlb.read_misses            0                       # DTB read misses
system.cpu3.dstage2_mmu.stage2_tlb.write_hits            0                       # DTB write hits
system.cpu3.dstage2_mmu.stage2_tlb.write_misses            0                       # DTB write misses
system.cpu3.dstage2_mmu.stage2_tlb.flush_tlb            0                       # Number of times complete TLB was flushed
system.cpu3.dstage2_mmu.stage2_tlb.flush_tlb_mva            0                       # Number of times TLB was flushed by MVA
system.cpu3.dstage2_mmu.stage2_tlb.flush_tlb_mva_asid            0                       # Number of times TLB was flushed by MVA & ASID
system.cpu3.dstage2_mmu.stage2_tlb.flush_tlb_asid            0                       # Number of times TLB was flushed by ASID
system.cpu3.dstage2_mmu.stage2_tlb.flush_entries            0                       # Number of entries that have been flushed from TLB
system.cpu3.dstage2_mmu.stage2_tlb.align_faults            0                       # Number of TLB faults due to alignment restrictions
system.cpu3.dstage2_mmu.stage2_tlb.prefetch_faults            0                       # Number of TLB faults due to prefetch
system.cpu3.dstage2_mmu.stage2_tlb.domain_faults            0                       # Number of TLB faults due to domain restrictions
system.cpu3.dstage2_mmu.stage2_tlb.perms_faults            0                       # Number of TLB faults due to permissions restrictions
system.cpu3.dstage2_mmu.stage2_tlb.read_accesses            0                       # DTB read accesses
system.cpu3.dstage2_mmu.stage2_tlb.write_accesses            0                       # DTB write accesses
system.cpu3.dstage2_mmu.stage2_tlb.inst_accesses            0                       # ITB inst accesses
system.cpu3.dstage2_mmu.stage2_tlb.hits             0                       # DTB hits
system.cpu3.dstage2_mmu.stage2_tlb.misses            0                       # DTB misses
system.cpu3.dstage2_mmu.stage2_tlb.accesses            0                       # DTB accesses
system.cpu3.dtb.inst_hits                           0                       # ITB inst hits
system.cpu3.dtb.inst_misses                         0                       # ITB inst misses
system.cpu3.dtb.read_hits                     5834645                       # DTB read hits
system.cpu3.dtb.read_misses                      3441                       # DTB read misses
system.cpu3.dtb.write_hits                    3572232                       # DTB write hits
system.cpu3.dtb.write_misses                     1057                       # DTB write misses
system.cpu3.dtb.flush_tlb                           4                       # Number of times complete TLB was flushed
system.cpu3.dtb.flush_tlb_mva                       0                       # Number of times TLB was flushed by MVA
system.cpu3.dtb.flush_tlb_mva_asid               8841                       # Number of times TLB was flushed by MVA & ASID
system.cpu3.dtb.flush_tlb_asid                    184                       # Number of times TLB was flushed by ASID
system.cpu3.dtb.flush_entries                    1480                       # Number of entries that have been flushed from TLB
system.cpu3.dtb.align_faults                        0                       # Number of TLB faults due to alignment restrictions
system.cpu3.dtb.prefetch_faults                   329                       # Number of TLB faults due to prefetch
system.cpu3.dtb.domain_faults                       0                       # Number of TLB faults due to domain restrictions
system.cpu3.dtb.perms_faults                      193                       # Number of TLB faults due to permissions restrictions
system.cpu3.dtb.read_accesses                 5838086                       # DTB read accesses
system.cpu3.dtb.write_accesses                3573289                       # DTB write accesses
system.cpu3.dtb.inst_accesses                       0                       # ITB inst accesses
system.cpu3.dtb.hits                          9406877                       # DTB hits
system.cpu3.dtb.misses                           4498                       # DTB misses
system.cpu3.dtb.accesses                      9411375                       # DTB accesses
system.cpu3.istage2_mmu.stage2_tlb.inst_hits            0                       # ITB inst hits
system.cpu3.istage2_mmu.stage2_tlb.inst_misses            0                       # ITB inst misses
system.cpu3.istage2_mmu.stage2_tlb.read_hits            0                       # DTB read hits
system.cpu3.istage2_mmu.stage2_tlb.read_misses            0                       # DTB read misses
system.cpu3.istage2_mmu.stage2_tlb.write_hits            0                       # DTB write hits
system.cpu3.istage2_mmu.stage2_tlb.write_misses            0                       # DTB write misses
system.cpu3.istage2_mmu.stage2_tlb.flush_tlb            0                       # Number of times complete TLB was flushed
system.cpu3.istage2_mmu.stage2_tlb.flush_tlb_mva            0                       # Number of times TLB was flushed by MVA
system.cpu3.istage2_mmu.stage2_tlb.flush_tlb_mva_asid            0                       # Number of times TLB was flushed by MVA & ASID
system.cpu3.istage2_mmu.stage2_tlb.flush_tlb_asid            0                       # Number of times TLB was flushed by ASID
system.cpu3.istage2_mmu.stage2_tlb.flush_entries            0                       # Number of entries that have been flushed from TLB
system.cpu3.istage2_mmu.stage2_tlb.align_faults            0                       # Number of TLB faults due to alignment restrictions
system.cpu3.istage2_mmu.stage2_tlb.prefetch_faults            0                       # Number of TLB faults due to prefetch
system.cpu3.istage2_mmu.stage2_tlb.domain_faults            0                       # Number of TLB faults due to domain restrictions
system.cpu3.istage2_mmu.stage2_tlb.perms_faults            0                       # Number of TLB faults due to permissions restrictions
system.cpu3.istage2_mmu.stage2_tlb.read_accesses            0                       # DTB read accesses
system.cpu3.istage2_mmu.stage2_tlb.write_accesses            0                       # DTB write accesses
system.cpu3.istage2_mmu.stage2_tlb.inst_accesses            0                       # ITB inst accesses
system.cpu3.istage2_mmu.stage2_tlb.hits             0                       # DTB hits
system.cpu3.istage2_mmu.stage2_tlb.misses            0                       # DTB misses
system.cpu3.istage2_mmu.stage2_tlb.accesses            0                       # DTB accesses
system.cpu3.itb.inst_hits                   105830761                       # ITB inst hits
system.cpu3.itb.inst_misses                      1724                       # ITB inst misses
system.cpu3.itb.read_hits                           0                       # DTB read hits
system.cpu3.itb.read_misses                         0                       # DTB read misses
system.cpu3.itb.write_hits                          0                       # DTB write hits
system.cpu3.itb.write_misses                        0                       # DTB write misses
system.cpu3.itb.flush_tlb                           4                       # Number of times complete TLB was flushed
system.cpu3.itb.flush_tlb_mva                       0                       # Number of times TLB was flushed by MVA
system.cpu3.itb.flush_tlb_mva_asid               8841                       # Number of times TLB was flushed by MVA & ASID
system.cpu3.itb.flush_tlb_asid                    184                       # Number of times TLB was flushed by ASID
system.cpu3.itb.flush_entries                     892                       # Number of entries that have been flushed from TLB
system.cpu3.itb.align_faults                        0                       # Number of TLB faults due to alignment restrictions
system.cpu3.itb.prefetch_faults                     0                       # Number of TLB faults due to prefetch
system.cpu3.itb.domain_faults                       0                       # Number of TLB faults due to domain restrictions
system.cpu3.itb.perms_faults                        0                       # Number of TLB faults due to permissions restrictions
system.cpu3.itb.read_accesses                       0                       # DTB read accesses
system.cpu3.itb.write_accesses                      0                       # DTB write accesses
system.cpu3.itb.inst_accesses               105832485                       # ITB inst accesses
system.cpu3.itb.hits                        105830761                       # DTB hits
system.cpu3.itb.misses                           1724                       # DTB misses
system.cpu3.itb.accesses                    105832485                       # DTB accesses
system.cpu3.numCycles                       129068992                       # number of cpu cycles simulated
system.cpu3.numWorkItemsStarted                     0                       # number of work items this cpu started
system.cpu3.numWorkItemsCompleted                   0                       # number of work items this cpu completed
system.cpu3.committedInsts                  105743851                       # Number of instructions committed
system.cpu3.committedOps                    110247513                       # Number of ops (including micro ops) committed
system.cpu3.num_int_alu_accesses             99033048                       # Number of integer alu accesses
system.cpu3.num_fp_alu_accesses                  3543                       # Number of float alu accesses
system.cpu3.num_func_calls                    6599678                       # number of times a function call or return occured
system.cpu3.num_conditional_control_insts     11847431                       # number of instructions that are conditional controls
system.cpu3.num_int_insts                    99033048                       # number of integer instructions
system.cpu3.num_fp_insts                         3543                       # number of float instructions
system.cpu3.num_int_register_reads          139633087                       # number of times the integer registers were read
system.cpu3.num_int_register_writes          65631224                       # number of times the integer registers were written
system.cpu3.num_fp_register_reads                1764                       # number of times the floating registers were read
system.cpu3.num_fp_register_writes               1776                       # number of times the floating registers were written
system.cpu3.num_cc_register_reads           330710125                       # number of times the CC registers were read
system.cpu3.num_cc_register_writes           72575801                       # number of times the CC registers were written
system.cpu3.num_mem_refs                      9660029                       # number of memory refs
system.cpu3.num_load_insts                    6067317                       # Number of load instructions
system.cpu3.num_store_insts                   3592712                       # Number of store instructions
system.cpu3.num_idle_cycles              18574784.337827                       # Number of idle cycles
system.cpu3.num_busy_cycles              110494207.662173                       # Number of busy cycles
system.cpu3.not_idle_fraction                0.856086                       # Percentage of non-idle cycles
system.cpu3.idle_fraction                    0.143914                       # Percentage of idle cycles
system.cpu3.Branches                         17917872                       # Number of branches fetched
system.cpu3.op_class::No_OpClass                 6965      0.01%      0.01% # Class of executed instruction
system.cpu3.op_class::IntAlu                 99758085     90.47%     90.48% # Class of executed instruction
system.cpu3.op_class::IntMult                  838827      0.76%     91.24% # Class of executed instruction
system.cpu3.op_class::IntDiv                        0      0.00%     91.24% # Class of executed instruction
system.cpu3.op_class::FloatAdd                      0      0.00%     91.24% # Class of executed instruction
system.cpu3.op_class::FloatCmp                      0      0.00%     91.24% # Class of executed instruction
system.cpu3.op_class::FloatCvt                      0      0.00%     91.24% # Class of executed instruction
system.cpu3.op_class::FloatMult                     0      0.00%     91.24% # Class of executed instruction
system.cpu3.op_class::FloatDiv                      0      0.00%     91.24% # Class of executed instruction
system.cpu3.op_class::FloatSqrt                     0      0.00%     91.24% # Class of executed instruction
system.cpu3.op_class::SimdAdd                       0      0.00%     91.24% # Class of executed instruction
system.cpu3.op_class::SimdAddAcc                    0      0.00%     91.24% # Class of executed instruction
system.cpu3.op_class::SimdAlu                       0      0.00%     91.24% # Class of executed instruction
system.cpu3.op_class::SimdCmp                       0      0.00%     91.24% # Class of executed instruction
system.cpu3.op_class::SimdCvt                       0      0.00%     91.24% # Class of executed instruction
system.cpu3.op_class::SimdMisc                      0      0.00%     91.24% # Class of executed instruction
system.cpu3.op_class::SimdMult                      0      0.00%     91.24% # Class of executed instruction
system.cpu3.op_class::SimdMultAcc                   0      0.00%     91.24% # Class of executed instruction
system.cpu3.op_class::SimdShift                     0      0.00%     91.24% # Class of executed instruction
system.cpu3.op_class::SimdShiftAcc                  0      0.00%     91.24% # Class of executed instruction
system.cpu3.op_class::SimdSqrt                      0      0.00%     91.24% # Class of executed instruction
system.cpu3.op_class::SimdFloatAdd                  0      0.00%     91.24% # Class of executed instruction
system.cpu3.op_class::SimdFloatAlu                  0      0.00%     91.24% # Class of executed instruction
system.cpu3.op_class::SimdFloatCmp                  0      0.00%     91.24% # Class of executed instruction
system.cpu3.op_class::SimdFloatCvt                  0      0.00%     91.24% # Class of executed instruction
system.cpu3.op_class::SimdFloatDiv                  0      0.00%     91.24% # Class of executed instruction
system.cpu3.op_class::SimdFloatMisc               389      0.00%     91.24% # Class of executed instruction
system.cpu3.op_class::SimdFloatMult                 0      0.00%     91.24% # Class of executed instruction
system.cpu3.op_class::SimdFloatMultAcc              0      0.00%     91.24% # Class of executed instruction
system.cpu3.op_class::SimdFloatSqrt                 0      0.00%     91.24% # Class of executed instruction
system.cpu3.op_class::MemRead                 6067317      5.50%     96.74% # Class of executed instruction
system.cpu3.op_class::MemWrite                3592712      3.26%    100.00% # Class of executed instruction
system.cpu3.op_class::IprAccess                     0      0.00%    100.00% # Class of executed instruction
system.cpu3.op_class::InstPrefetch                  0      0.00%    100.00% # Class of executed instruction
system.cpu3.op_class::total                 110264295                       # Class of executed instruction
system.cpu3.kern.inst.arm                           0                       # number of arm instructions executed
system.cpu3.kern.inst.quiesce                    7359                       # number of quiesce instructions executed

---------- End Simulation Statistics   ----------
