
---------- Begin Simulation Statistics ----------
sim_seconds                                  3.195146                       # Number of seconds simulated
sim_ticks                                3195145973000                       # Number of ticks simulated
final_tick                               3195145973000                       # Number of ticks from beginning of simulation (restored from checkpoints and never reset)
sim_freq                                 1000000000000                       # Frequency of simulated ticks
host_inst_rate                                1500119                       # Simulator instruction rate (inst/s)
host_op_rate                                  1707849                       # Simulator op (including micro ops) rate (op/s)
host_tick_rate                             2558812196                       # Simulator tick rate (ticks/s)
host_mem_usage                                 879712                       # Number of bytes of host memory used
host_seconds                                  1248.68                       # Real time elapsed on the host
sim_insts                                  1873173642                       # Number of instructions simulated
sim_ops                                    2132561985                       # Number of ops (including micro ops) simulated
system.voltage_domain.voltage                       1                       # Voltage in Volts
system.clk_domain.clock                          1000                       # Clock period in ticks
system.realview.nvmem.bytes_read::cpu0.inst           20                       # Number of bytes read from this memory
system.realview.nvmem.bytes_read::cpu1.inst           48                       # Number of bytes read from this memory
system.realview.nvmem.bytes_read::cpu2.inst           48                       # Number of bytes read from this memory
system.realview.nvmem.bytes_read::cpu3.inst           48                       # Number of bytes read from this memory
system.realview.nvmem.bytes_read::cpu4.inst           48                       # Number of bytes read from this memory
system.realview.nvmem.bytes_read::cpu5.inst           48                       # Number of bytes read from this memory
system.realview.nvmem.bytes_read::cpu6.inst           48                       # Number of bytes read from this memory
system.realview.nvmem.bytes_read::cpu7.inst           48                       # Number of bytes read from this memory
system.realview.nvmem.bytes_read::total           356                       # Number of bytes read from this memory
system.realview.nvmem.bytes_inst_read::cpu0.inst           20                       # Number of instructions bytes read from this memory
system.realview.nvmem.bytes_inst_read::cpu1.inst           48                       # Number of instructions bytes read from this memory
system.realview.nvmem.bytes_inst_read::cpu2.inst           48                       # Number of instructions bytes read from this memory
system.realview.nvmem.bytes_inst_read::cpu3.inst           48                       # Number of instructions bytes read from this memory
system.realview.nvmem.bytes_inst_read::cpu4.inst           48                       # Number of instructions bytes read from this memory
system.realview.nvmem.bytes_inst_read::cpu5.inst           48                       # Number of instructions bytes read from this memory
system.realview.nvmem.bytes_inst_read::cpu6.inst           48                       # Number of instructions bytes read from this memory
system.realview.nvmem.bytes_inst_read::cpu7.inst           48                       # Number of instructions bytes read from this memory
system.realview.nvmem.bytes_inst_read::total          356                       # Number of instructions bytes read from this memory
system.realview.nvmem.num_reads::cpu0.inst            5                       # Number of read requests responded to by this memory
system.realview.nvmem.num_reads::cpu1.inst           12                       # Number of read requests responded to by this memory
system.realview.nvmem.num_reads::cpu2.inst           12                       # Number of read requests responded to by this memory
system.realview.nvmem.num_reads::cpu3.inst           12                       # Number of read requests responded to by this memory
system.realview.nvmem.num_reads::cpu4.inst           12                       # Number of read requests responded to by this memory
system.realview.nvmem.num_reads::cpu5.inst           12                       # Number of read requests responded to by this memory
system.realview.nvmem.num_reads::cpu6.inst           12                       # Number of read requests responded to by this memory
system.realview.nvmem.num_reads::cpu7.inst           12                       # Number of read requests responded to by this memory
system.realview.nvmem.num_reads::total             89                       # Number of read requests responded to by this memory
system.realview.nvmem.bw_read::cpu0.inst            6                       # Total read bandwidth from this memory (bytes/s)
system.realview.nvmem.bw_read::cpu1.inst           15                       # Total read bandwidth from this memory (bytes/s)
system.realview.nvmem.bw_read::cpu2.inst           15                       # Total read bandwidth from this memory (bytes/s)
system.realview.nvmem.bw_read::cpu3.inst           15                       # Total read bandwidth from this memory (bytes/s)
system.realview.nvmem.bw_read::cpu4.inst           15                       # Total read bandwidth from this memory (bytes/s)
system.realview.nvmem.bw_read::cpu5.inst           15                       # Total read bandwidth from this memory (bytes/s)
system.realview.nvmem.bw_read::cpu6.inst           15                       # Total read bandwidth from this memory (bytes/s)
system.realview.nvmem.bw_read::cpu7.inst           15                       # Total read bandwidth from this memory (bytes/s)
system.realview.nvmem.bw_read::total              111                       # Total read bandwidth from this memory (bytes/s)
system.realview.nvmem.bw_inst_read::cpu0.inst            6                       # Instruction read bandwidth from this memory (bytes/s)
system.realview.nvmem.bw_inst_read::cpu1.inst           15                       # Instruction read bandwidth from this memory (bytes/s)
system.realview.nvmem.bw_inst_read::cpu2.inst           15                       # Instruction read bandwidth from this memory (bytes/s)
system.realview.nvmem.bw_inst_read::cpu3.inst           15                       # Instruction read bandwidth from this memory (bytes/s)
system.realview.nvmem.bw_inst_read::cpu4.inst           15                       # Instruction read bandwidth from this memory (bytes/s)
system.realview.nvmem.bw_inst_read::cpu5.inst           15                       # Instruction read bandwidth from this memory (bytes/s)
system.realview.nvmem.bw_inst_read::cpu6.inst           15                       # Instruction read bandwidth from this memory (bytes/s)
system.realview.nvmem.bw_inst_read::cpu7.inst           15                       # Instruction read bandwidth from this memory (bytes/s)
system.realview.nvmem.bw_inst_read::total          111                       # Instruction read bandwidth from this memory (bytes/s)
system.realview.nvmem.bw_total::cpu0.inst            6                       # Total bandwidth to/from this memory (bytes/s)
system.realview.nvmem.bw_total::cpu1.inst           15                       # Total bandwidth to/from this memory (bytes/s)
system.realview.nvmem.bw_total::cpu2.inst           15                       # Total bandwidth to/from this memory (bytes/s)
system.realview.nvmem.bw_total::cpu3.inst           15                       # Total bandwidth to/from this memory (bytes/s)
system.realview.nvmem.bw_total::cpu4.inst           15                       # Total bandwidth to/from this memory (bytes/s)
system.realview.nvmem.bw_total::cpu5.inst           15                       # Total bandwidth to/from this memory (bytes/s)
system.realview.nvmem.bw_total::cpu6.inst           15                       # Total bandwidth to/from this memory (bytes/s)
system.realview.nvmem.bw_total::cpu7.inst           15                       # Total bandwidth to/from this memory (bytes/s)
system.realview.nvmem.bw_total::total             111                       # Total bandwidth to/from this memory (bytes/s)
system.mem_ctrls.bytes_read::realview.ide       316096                       # Number of bytes read from this memory
system.mem_ctrls.bytes_read::cpu0.dtb.walker        74688                       # Number of bytes read from this memory
system.mem_ctrls.bytes_read::cpu0.itb.walker        65984                       # Number of bytes read from this memory
system.mem_ctrls.bytes_read::cpu0.inst        4994212                       # Number of bytes read from this memory
system.mem_ctrls.bytes_read::cpu0.data       39462256                       # Number of bytes read from this memory
system.mem_ctrls.bytes_read::cpu1.dtb.walker        64640                       # Number of bytes read from this memory
system.mem_ctrls.bytes_read::cpu1.itb.walker        66368                       # Number of bytes read from this memory
system.mem_ctrls.bytes_read::cpu1.inst        1672224                       # Number of bytes read from this memory
system.mem_ctrls.bytes_read::cpu1.data       15862843                       # Number of bytes read from this memory
system.mem_ctrls.bytes_read::cpu2.dtb.walker        91328                       # Number of bytes read from this memory
system.mem_ctrls.bytes_read::cpu2.itb.walker        93696                       # Number of bytes read from this memory
system.mem_ctrls.bytes_read::cpu2.inst      161862580                       # Number of bytes read from this memory
system.mem_ctrls.bytes_read::cpu2.data       68124951                       # Number of bytes read from this memory
system.mem_ctrls.bytes_read::cpu3.dtb.walker        25024                       # Number of bytes read from this memory
system.mem_ctrls.bytes_read::cpu3.itb.walker        31552                       # Number of bytes read from this memory
system.mem_ctrls.bytes_read::cpu3.inst      321177336                       # Number of bytes read from this memory
system.mem_ctrls.bytes_read::cpu3.data      112709187                       # Number of bytes read from this memory
system.mem_ctrls.bytes_read::cpu4.dtb.walker        74112                       # Number of bytes read from this memory
system.mem_ctrls.bytes_read::cpu4.itb.walker        71744                       # Number of bytes read from this memory
system.mem_ctrls.bytes_read::cpu4.inst      482365588                       # Number of bytes read from this memory
system.mem_ctrls.bytes_read::cpu4.data      173546679                       # Number of bytes read from this memory
system.mem_ctrls.bytes_read::cpu5.dtb.walker        23296                       # Number of bytes read from this memory
system.mem_ctrls.bytes_read::cpu5.itb.walker        15936                       # Number of bytes read from this memory
system.mem_ctrls.bytes_read::cpu5.inst      640633312                       # Number of bytes read from this memory
system.mem_ctrls.bytes_read::cpu5.data      217462011                       # Number of bytes read from this memory
system.mem_ctrls.bytes_read::cpu6.dtb.walker        61440                       # Number of bytes read from this memory
system.mem_ctrls.bytes_read::cpu6.itb.walker        56768                       # Number of bytes read from this memory
system.mem_ctrls.bytes_read::cpu6.inst      802121088                       # Number of bytes read from this memory
system.mem_ctrls.bytes_read::cpu6.data      281371803                       # Number of bytes read from this memory
system.mem_ctrls.bytes_read::cpu7.dtb.walker        75328                       # Number of bytes read from this memory
system.mem_ctrls.bytes_read::cpu7.itb.walker        78656                       # Number of bytes read from this memory
system.mem_ctrls.bytes_read::cpu7.inst      961708744                       # Number of bytes read from this memory
system.mem_ctrls.bytes_read::cpu7.data      335425436                       # Number of bytes read from this memory
system.mem_ctrls.bytes_read::total         4621786906                       # Number of bytes read from this memory
system.mem_ctrls.bytes_inst_read::cpu0.inst      4994212                       # Number of instructions bytes read from this memory
system.mem_ctrls.bytes_inst_read::cpu1.inst      1672224                       # Number of instructions bytes read from this memory
system.mem_ctrls.bytes_inst_read::cpu2.inst    161862580                       # Number of instructions bytes read from this memory
system.mem_ctrls.bytes_inst_read::cpu3.inst    321177336                       # Number of instructions bytes read from this memory
system.mem_ctrls.bytes_inst_read::cpu4.inst    482365588                       # Number of instructions bytes read from this memory
system.mem_ctrls.bytes_inst_read::cpu5.inst    640633312                       # Number of instructions bytes read from this memory
system.mem_ctrls.bytes_inst_read::cpu6.inst    802121088                       # Number of instructions bytes read from this memory
system.mem_ctrls.bytes_inst_read::cpu7.inst    961708744                       # Number of instructions bytes read from this memory
system.mem_ctrls.bytes_inst_read::total    3376535084                       # Number of instructions bytes read from this memory
system.mem_ctrls.bytes_written::writebacks     95813120                       # Number of bytes written to this memory
system.mem_ctrls.bytes_written::realview.ide     10927616                       # Number of bytes written to this memory
system.mem_ctrls.bytes_written::cpu0.data        18064                       # Number of bytes written to this memory
system.mem_ctrls.bytes_written::cpu1.data           54                       # Number of bytes written to this memory
system.mem_ctrls.bytes_written::cpu2.data           54                       # Number of bytes written to this memory
system.mem_ctrls.bytes_written::cpu3.data           54                       # Number of bytes written to this memory
system.mem_ctrls.bytes_written::cpu4.data           54                       # Number of bytes written to this memory
system.mem_ctrls.bytes_written::cpu5.data           54                       # Number of bytes written to this memory
system.mem_ctrls.bytes_written::cpu6.data           54                       # Number of bytes written to this memory
system.mem_ctrls.bytes_written::cpu7.data           40                       # Number of bytes written to this memory
system.mem_ctrls.bytes_written::total       106759164                       # Number of bytes written to this memory
system.mem_ctrls.num_reads::realview.ide         4939                       # Number of read requests responded to by this memory
system.mem_ctrls.num_reads::cpu0.dtb.walker         1167                       # Number of read requests responded to by this memory
system.mem_ctrls.num_reads::cpu0.itb.walker         1031                       # Number of read requests responded to by this memory
system.mem_ctrls.num_reads::cpu0.inst           86488                       # Number of read requests responded to by this memory
system.mem_ctrls.num_reads::cpu0.data          617225                       # Number of read requests responded to by this memory
system.mem_ctrls.num_reads::cpu1.dtb.walker         1010                       # Number of read requests responded to by this memory
system.mem_ctrls.num_reads::cpu1.itb.walker         1037                       # Number of read requests responded to by this memory
system.mem_ctrls.num_reads::cpu1.inst           26286                       # Number of read requests responded to by this memory
system.mem_ctrls.num_reads::cpu1.data          247888                       # Number of read requests responded to by this memory
system.mem_ctrls.num_reads::cpu2.dtb.walker         1427                       # Number of read requests responded to by this memory
system.mem_ctrls.num_reads::cpu2.itb.walker         1464                       # Number of read requests responded to by this memory
system.mem_ctrls.num_reads::cpu2.inst        40034890                       # Number of read requests responded to by this memory
system.mem_ctrls.num_reads::cpu2.data        13566360                       # Number of read requests responded to by this memory
system.mem_ctrls.num_reads::cpu3.dtb.walker          391                       # Number of read requests responded to by this memory
system.mem_ctrls.num_reads::cpu3.itb.walker          493                       # Number of read requests responded to by this memory
system.mem_ctrls.num_reads::cpu3.inst        80035944                       # Number of read requests responded to by this memory
system.mem_ctrls.num_reads::cpu3.data        26766909                       # Number of read requests responded to by this memory
system.mem_ctrls.num_reads::cpu4.dtb.walker         1158                       # Number of read requests responded to by this memory
system.mem_ctrls.num_reads::cpu4.itb.walker         1121                       # Number of read requests responded to by this memory
system.mem_ctrls.num_reads::cpu4.inst       120055747                       # Number of read requests responded to by this memory
system.mem_ctrls.num_reads::cpu4.data        40217907                       # Number of read requests responded to by this memory
system.mem_ctrls.num_reads::cpu5.dtb.walker          364                       # Number of read requests responded to by this memory
system.mem_ctrls.num_reads::cpu5.itb.walker          249                       # Number of read requests responded to by this memory
system.mem_ctrls.num_reads::cpu5.inst       160033168                       # Number of read requests responded to by this memory
system.mem_ctrls.num_reads::cpu5.data        53405580                       # Number of read requests responded to by this memory
system.mem_ctrls.num_reads::cpu6.dtb.walker          960                       # Number of read requests responded to by this memory
system.mem_ctrls.num_reads::cpu6.itb.walker          887                       # Number of read requests responded to by this memory
system.mem_ctrls.num_reads::cpu6.inst       200062182                       # Number of read requests responded to by this memory
system.mem_ctrls.num_reads::cpu6.data        66906093                       # Number of read requests responded to by this memory
system.mem_ctrls.num_reads::cpu7.dtb.walker         1177                       # Number of read requests responded to by this memory
system.mem_ctrls.num_reads::cpu7.itb.walker         1229                       # Number of read requests responded to by this memory
system.mem_ctrls.num_reads::cpu7.inst       240061501                       # Number of read requests responded to by this memory
system.mem_ctrls.num_reads::cpu7.data        80252595                       # Number of read requests responded to by this memory
system.mem_ctrls.num_reads::total          1122396867                       # Number of read requests responded to by this memory
system.mem_ctrls.num_writes::writebacks       1497080                       # Number of write requests responded to by this memory
system.mem_ctrls.num_writes::realview.ide       170744                       # Number of write requests responded to by this memory
system.mem_ctrls.num_writes::cpu0.data           4522                       # Number of write requests responded to by this memory
system.mem_ctrls.num_writes::cpu1.data             14                       # Number of write requests responded to by this memory
system.mem_ctrls.num_writes::cpu2.data             14                       # Number of write requests responded to by this memory
system.mem_ctrls.num_writes::cpu3.data             14                       # Number of write requests responded to by this memory
system.mem_ctrls.num_writes::cpu4.data             14                       # Number of write requests responded to by this memory
system.mem_ctrls.num_writes::cpu5.data             14                       # Number of write requests responded to by this memory
system.mem_ctrls.num_writes::cpu6.data             14                       # Number of write requests responded to by this memory
system.mem_ctrls.num_writes::cpu7.data             10                       # Number of write requests responded to by this memory
system.mem_ctrls.num_writes::total            1672440                       # Number of write requests responded to by this memory
system.mem_ctrls.bw_read::realview.ide          98930                       # Total read bandwidth from this memory (bytes/s)
system.mem_ctrls.bw_read::cpu0.dtb.walker        23375                       # Total read bandwidth from this memory (bytes/s)
system.mem_ctrls.bw_read::cpu0.itb.walker        20651                       # Total read bandwidth from this memory (bytes/s)
system.mem_ctrls.bw_read::cpu0.inst           1563062                       # Total read bandwidth from this memory (bytes/s)
system.mem_ctrls.bw_read::cpu0.data          12350690                       # Total read bandwidth from this memory (bytes/s)
system.mem_ctrls.bw_read::cpu1.dtb.walker        20231                       # Total read bandwidth from this memory (bytes/s)
system.mem_ctrls.bw_read::cpu1.itb.walker        20772                       # Total read bandwidth from this memory (bytes/s)
system.mem_ctrls.bw_read::cpu1.inst            523364                       # Total read bandwidth from this memory (bytes/s)
system.mem_ctrls.bw_read::cpu1.data           4964669                       # Total read bandwidth from this memory (bytes/s)
system.mem_ctrls.bw_read::cpu2.dtb.walker        28583                       # Total read bandwidth from this memory (bytes/s)
system.mem_ctrls.bw_read::cpu2.itb.walker        29324                       # Total read bandwidth from this memory (bytes/s)
system.mem_ctrls.bw_read::cpu2.inst          50658900                       # Total read bandwidth from this memory (bytes/s)
system.mem_ctrls.bw_read::cpu2.data          21321389                       # Total read bandwidth from this memory (bytes/s)
system.mem_ctrls.bw_read::cpu3.dtb.walker         7832                       # Total read bandwidth from this memory (bytes/s)
system.mem_ctrls.bw_read::cpu3.itb.walker         9875                       # Total read bandwidth from this memory (bytes/s)
system.mem_ctrls.bw_read::cpu3.inst         100520395                       # Total read bandwidth from this memory (bytes/s)
system.mem_ctrls.bw_read::cpu3.data          35275129                       # Total read bandwidth from this memory (bytes/s)
system.mem_ctrls.bw_read::cpu4.dtb.walker        23195                       # Total read bandwidth from this memory (bytes/s)
system.mem_ctrls.bw_read::cpu4.itb.walker        22454                       # Total read bandwidth from this memory (bytes/s)
system.mem_ctrls.bw_read::cpu4.inst         150968247                       # Total read bandwidth from this memory (bytes/s)
system.mem_ctrls.bw_read::cpu4.data          54315728                       # Total read bandwidth from this memory (bytes/s)
system.mem_ctrls.bw_read::cpu5.dtb.walker         7291                       # Total read bandwidth from this memory (bytes/s)
system.mem_ctrls.bw_read::cpu5.itb.walker         4988                       # Total read bandwidth from this memory (bytes/s)
system.mem_ctrls.bw_read::cpu5.inst         200502048                       # Total read bandwidth from this memory (bytes/s)
system.mem_ctrls.bw_read::cpu5.data          68060118                       # Total read bandwidth from this memory (bytes/s)
system.mem_ctrls.bw_read::cpu6.dtb.walker        19229                       # Total read bandwidth from this memory (bytes/s)
system.mem_ctrls.bw_read::cpu6.itb.walker        17767                       # Total read bandwidth from this memory (bytes/s)
system.mem_ctrls.bw_read::cpu6.inst         251043644                       # Total read bandwidth from this memory (bytes/s)
system.mem_ctrls.bw_read::cpu6.data          88062269                       # Total read bandwidth from this memory (bytes/s)
system.mem_ctrls.bw_read::cpu7.dtb.walker        23576                       # Total read bandwidth from this memory (bytes/s)
system.mem_ctrls.bw_read::cpu7.itb.walker        24617                       # Total read bandwidth from this memory (bytes/s)
system.mem_ctrls.bw_read::cpu7.inst         300990550                       # Total read bandwidth from this memory (bytes/s)
system.mem_ctrls.bw_read::cpu7.data         104979691                       # Total read bandwidth from this memory (bytes/s)
system.mem_ctrls.bw_read::total            1446502584                       # Total read bandwidth from this memory (bytes/s)
system.mem_ctrls.bw_inst_read::cpu0.inst      1563062                       # Instruction read bandwidth from this memory (bytes/s)
system.mem_ctrls.bw_inst_read::cpu1.inst       523364                       # Instruction read bandwidth from this memory (bytes/s)
system.mem_ctrls.bw_inst_read::cpu2.inst     50658900                       # Instruction read bandwidth from this memory (bytes/s)
system.mem_ctrls.bw_inst_read::cpu3.inst    100520395                       # Instruction read bandwidth from this memory (bytes/s)
system.mem_ctrls.bw_inst_read::cpu4.inst    150968247                       # Instruction read bandwidth from this memory (bytes/s)
system.mem_ctrls.bw_inst_read::cpu5.inst    200502048                       # Instruction read bandwidth from this memory (bytes/s)
system.mem_ctrls.bw_inst_read::cpu6.inst    251043644                       # Instruction read bandwidth from this memory (bytes/s)
system.mem_ctrls.bw_inst_read::cpu7.inst    300990550                       # Instruction read bandwidth from this memory (bytes/s)
system.mem_ctrls.bw_inst_read::total       1056770211                       # Instruction read bandwidth from this memory (bytes/s)
system.mem_ctrls.bw_write::writebacks        29987087                       # Write bandwidth from this memory (bytes/s)
system.mem_ctrls.bw_write::realview.ide       3420068                       # Write bandwidth from this memory (bytes/s)
system.mem_ctrls.bw_write::cpu0.data             5654                       # Write bandwidth from this memory (bytes/s)
system.mem_ctrls.bw_write::cpu1.data               17                       # Write bandwidth from this memory (bytes/s)
system.mem_ctrls.bw_write::cpu2.data               17                       # Write bandwidth from this memory (bytes/s)
system.mem_ctrls.bw_write::cpu3.data               17                       # Write bandwidth from this memory (bytes/s)
system.mem_ctrls.bw_write::cpu4.data               17                       # Write bandwidth from this memory (bytes/s)
system.mem_ctrls.bw_write::cpu5.data               17                       # Write bandwidth from this memory (bytes/s)
system.mem_ctrls.bw_write::cpu6.data               17                       # Write bandwidth from this memory (bytes/s)
system.mem_ctrls.bw_write::cpu7.data               13                       # Write bandwidth from this memory (bytes/s)
system.mem_ctrls.bw_write::total             33412922                       # Write bandwidth from this memory (bytes/s)
system.mem_ctrls.bw_total::writebacks        29987087                       # Total bandwidth to/from this memory (bytes/s)
system.mem_ctrls.bw_total::realview.ide       3518998                       # Total bandwidth to/from this memory (bytes/s)
system.mem_ctrls.bw_total::cpu0.dtb.walker        23375                       # Total bandwidth to/from this memory (bytes/s)
system.mem_ctrls.bw_total::cpu0.itb.walker        20651                       # Total bandwidth to/from this memory (bytes/s)
system.mem_ctrls.bw_total::cpu0.inst          1563062                       # Total bandwidth to/from this memory (bytes/s)
system.mem_ctrls.bw_total::cpu0.data         12356343                       # Total bandwidth to/from this memory (bytes/s)
system.mem_ctrls.bw_total::cpu1.dtb.walker        20231                       # Total bandwidth to/from this memory (bytes/s)
system.mem_ctrls.bw_total::cpu1.itb.walker        20772                       # Total bandwidth to/from this memory (bytes/s)
system.mem_ctrls.bw_total::cpu1.inst           523364                       # Total bandwidth to/from this memory (bytes/s)
system.mem_ctrls.bw_total::cpu1.data          4964686                       # Total bandwidth to/from this memory (bytes/s)
system.mem_ctrls.bw_total::cpu2.dtb.walker        28583                       # Total bandwidth to/from this memory (bytes/s)
system.mem_ctrls.bw_total::cpu2.itb.walker        29324                       # Total bandwidth to/from this memory (bytes/s)
system.mem_ctrls.bw_total::cpu2.inst         50658900                       # Total bandwidth to/from this memory (bytes/s)
system.mem_ctrls.bw_total::cpu2.data         21321406                       # Total bandwidth to/from this memory (bytes/s)
system.mem_ctrls.bw_total::cpu3.dtb.walker         7832                       # Total bandwidth to/from this memory (bytes/s)
system.mem_ctrls.bw_total::cpu3.itb.walker         9875                       # Total bandwidth to/from this memory (bytes/s)
system.mem_ctrls.bw_total::cpu3.inst        100520395                       # Total bandwidth to/from this memory (bytes/s)
system.mem_ctrls.bw_total::cpu3.data         35275146                       # Total bandwidth to/from this memory (bytes/s)
system.mem_ctrls.bw_total::cpu4.dtb.walker        23195                       # Total bandwidth to/from this memory (bytes/s)
system.mem_ctrls.bw_total::cpu4.itb.walker        22454                       # Total bandwidth to/from this memory (bytes/s)
system.mem_ctrls.bw_total::cpu4.inst        150968247                       # Total bandwidth to/from this memory (bytes/s)
system.mem_ctrls.bw_total::cpu4.data         54315745                       # Total bandwidth to/from this memory (bytes/s)
system.mem_ctrls.bw_total::cpu5.dtb.walker         7291                       # Total bandwidth to/from this memory (bytes/s)
system.mem_ctrls.bw_total::cpu5.itb.walker         4988                       # Total bandwidth to/from this memory (bytes/s)
system.mem_ctrls.bw_total::cpu5.inst        200502048                       # Total bandwidth to/from this memory (bytes/s)
system.mem_ctrls.bw_total::cpu5.data         68060135                       # Total bandwidth to/from this memory (bytes/s)
system.mem_ctrls.bw_total::cpu6.dtb.walker        19229                       # Total bandwidth to/from this memory (bytes/s)
system.mem_ctrls.bw_total::cpu6.itb.walker        17767                       # Total bandwidth to/from this memory (bytes/s)
system.mem_ctrls.bw_total::cpu6.inst        251043644                       # Total bandwidth to/from this memory (bytes/s)
system.mem_ctrls.bw_total::cpu6.data         88062286                       # Total bandwidth to/from this memory (bytes/s)
system.mem_ctrls.bw_total::cpu7.dtb.walker        23576                       # Total bandwidth to/from this memory (bytes/s)
system.mem_ctrls.bw_total::cpu7.itb.walker        24617                       # Total bandwidth to/from this memory (bytes/s)
system.mem_ctrls.bw_total::cpu7.inst        300990550                       # Total bandwidth to/from this memory (bytes/s)
system.mem_ctrls.bw_total::cpu7.data        104979703                       # Total bandwidth to/from this memory (bytes/s)
system.mem_ctrls.bw_total::total           1479915506                       # Total bandwidth to/from this memory (bytes/s)
system.mem_ctrls.readReqs                           0                       # Number of read requests accepted
system.mem_ctrls.writeReqs                          0                       # Number of write requests accepted
system.mem_ctrls.readBursts                         0                       # Number of DRAM read bursts, including those serviced by the write queue
system.mem_ctrls.writeBursts                        0                       # Number of DRAM write bursts, including those merged in the write queue
system.mem_ctrls.bytesReadDRAM                      0                       # Total number of bytes read from DRAM
system.mem_ctrls.bytesReadWrQ                       0                       # Total number of bytes read from write queue
system.mem_ctrls.bytesWritten                       0                       # Total number of bytes written to DRAM
system.mem_ctrls.bytesReadSys                       0                       # Total read bytes from the system interface side
system.mem_ctrls.bytesWrittenSys                    0                       # Total written bytes from the system interface side
system.mem_ctrls.servicedByWrQ                      0                       # Number of DRAM read bursts serviced by the write queue
system.mem_ctrls.mergedWrBursts                     0                       # Number of DRAM write bursts merged with an existing one
system.mem_ctrls.neitherReadNorWriteReqs            0                       # Number of requests that are neither read nor write
system.mem_ctrls.perBankRdBursts::0                 0                       # Per bank write bursts
system.mem_ctrls.perBankRdBursts::1                 0                       # Per bank write bursts
system.mem_ctrls.perBankRdBursts::2                 0                       # Per bank write bursts
system.mem_ctrls.perBankRdBursts::3                 0                       # Per bank write bursts
system.mem_ctrls.perBankRdBursts::4                 0                       # Per bank write bursts
system.mem_ctrls.perBankRdBursts::5                 0                       # Per bank write bursts
system.mem_ctrls.perBankRdBursts::6                 0                       # Per bank write bursts
system.mem_ctrls.perBankRdBursts::7                 0                       # Per bank write bursts
system.mem_ctrls.perBankRdBursts::8                 0                       # Per bank write bursts
system.mem_ctrls.perBankRdBursts::9                 0                       # Per bank write bursts
system.mem_ctrls.perBankRdBursts::10                0                       # Per bank write bursts
system.mem_ctrls.perBankRdBursts::11                0                       # Per bank write bursts
system.mem_ctrls.perBankRdBursts::12                0                       # Per bank write bursts
system.mem_ctrls.perBankRdBursts::13                0                       # Per bank write bursts
system.mem_ctrls.perBankRdBursts::14                0                       # Per bank write bursts
system.mem_ctrls.perBankRdBursts::15                0                       # Per bank write bursts
system.mem_ctrls.perBankWrBursts::0                 0                       # Per bank write bursts
system.mem_ctrls.perBankWrBursts::1                 0                       # Per bank write bursts
system.mem_ctrls.perBankWrBursts::2                 0                       # Per bank write bursts
system.mem_ctrls.perBankWrBursts::3                 0                       # Per bank write bursts
system.mem_ctrls.perBankWrBursts::4                 0                       # Per bank write bursts
system.mem_ctrls.perBankWrBursts::5                 0                       # Per bank write bursts
system.mem_ctrls.perBankWrBursts::6                 0                       # Per bank write bursts
system.mem_ctrls.perBankWrBursts::7                 0                       # Per bank write bursts
system.mem_ctrls.perBankWrBursts::8                 0                       # Per bank write bursts
system.mem_ctrls.perBankWrBursts::9                 0                       # Per bank write bursts
system.mem_ctrls.perBankWrBursts::10                0                       # Per bank write bursts
system.mem_ctrls.perBankWrBursts::11                0                       # Per bank write bursts
system.mem_ctrls.perBankWrBursts::12                0                       # Per bank write bursts
system.mem_ctrls.perBankWrBursts::13                0                       # Per bank write bursts
system.mem_ctrls.perBankWrBursts::14                0                       # Per bank write bursts
system.mem_ctrls.perBankWrBursts::15                0                       # Per bank write bursts
system.mem_ctrls.numRdRetry                         0                       # Number of times read queue was full causing retry
system.mem_ctrls.numWrRetry                         0                       # Number of times write queue was full causing retry
system.mem_ctrls.totGap                             0                       # Total gap between requests
system.mem_ctrls.readPktSize::0                     0                       # Read request sizes (log2)
system.mem_ctrls.readPktSize::1                     0                       # Read request sizes (log2)
system.mem_ctrls.readPktSize::2                     0                       # Read request sizes (log2)
system.mem_ctrls.readPktSize::3                     0                       # Read request sizes (log2)
system.mem_ctrls.readPktSize::4                     0                       # Read request sizes (log2)
system.mem_ctrls.readPktSize::5                     0                       # Read request sizes (log2)
system.mem_ctrls.readPktSize::6                     0                       # Read request sizes (log2)
system.mem_ctrls.writePktSize::0                    0                       # Write request sizes (log2)
system.mem_ctrls.writePktSize::1                    0                       # Write request sizes (log2)
system.mem_ctrls.writePktSize::2                    0                       # Write request sizes (log2)
system.mem_ctrls.writePktSize::3                    0                       # Write request sizes (log2)
system.mem_ctrls.writePktSize::4                    0                       # Write request sizes (log2)
system.mem_ctrls.writePktSize::5                    0                       # Write request sizes (log2)
system.mem_ctrls.writePktSize::6                    0                       # Write request sizes (log2)
system.mem_ctrls.rdQLenPdf::0                       0                       # What read queue length does an incoming req see
system.mem_ctrls.rdQLenPdf::1                       0                       # What read queue length does an incoming req see
system.mem_ctrls.rdQLenPdf::2                       0                       # What read queue length does an incoming req see
system.mem_ctrls.rdQLenPdf::3                       0                       # What read queue length does an incoming req see
system.mem_ctrls.rdQLenPdf::4                       0                       # What read queue length does an incoming req see
system.mem_ctrls.rdQLenPdf::5                       0                       # What read queue length does an incoming req see
system.mem_ctrls.rdQLenPdf::6                       0                       # What read queue length does an incoming req see
system.mem_ctrls.rdQLenPdf::7                       0                       # What read queue length does an incoming req see
system.mem_ctrls.rdQLenPdf::8                       0                       # What read queue length does an incoming req see
system.mem_ctrls.rdQLenPdf::9                       0                       # What read queue length does an incoming req see
system.mem_ctrls.rdQLenPdf::10                      0                       # What read queue length does an incoming req see
system.mem_ctrls.rdQLenPdf::11                      0                       # What read queue length does an incoming req see
system.mem_ctrls.rdQLenPdf::12                      0                       # What read queue length does an incoming req see
system.mem_ctrls.rdQLenPdf::13                      0                       # What read queue length does an incoming req see
system.mem_ctrls.rdQLenPdf::14                      0                       # What read queue length does an incoming req see
system.mem_ctrls.rdQLenPdf::15                      0                       # What read queue length does an incoming req see
system.mem_ctrls.rdQLenPdf::16                      0                       # What read queue length does an incoming req see
system.mem_ctrls.rdQLenPdf::17                      0                       # What read queue length does an incoming req see
system.mem_ctrls.rdQLenPdf::18                      0                       # What read queue length does an incoming req see
system.mem_ctrls.rdQLenPdf::19                      0                       # What read queue length does an incoming req see
system.mem_ctrls.rdQLenPdf::20                      0                       # What read queue length does an incoming req see
system.mem_ctrls.rdQLenPdf::21                      0                       # What read queue length does an incoming req see
system.mem_ctrls.rdQLenPdf::22                      0                       # What read queue length does an incoming req see
system.mem_ctrls.rdQLenPdf::23                      0                       # What read queue length does an incoming req see
system.mem_ctrls.rdQLenPdf::24                      0                       # What read queue length does an incoming req see
system.mem_ctrls.rdQLenPdf::25                      0                       # What read queue length does an incoming req see
system.mem_ctrls.rdQLenPdf::26                      0                       # What read queue length does an incoming req see
system.mem_ctrls.rdQLenPdf::27                      0                       # What read queue length does an incoming req see
system.mem_ctrls.rdQLenPdf::28                      0                       # What read queue length does an incoming req see
system.mem_ctrls.rdQLenPdf::29                      0                       # What read queue length does an incoming req see
system.mem_ctrls.rdQLenPdf::30                      0                       # What read queue length does an incoming req see
system.mem_ctrls.rdQLenPdf::31                      0                       # What read queue length does an incoming req see
system.mem_ctrls.wrQLenPdf::0                       0                       # What write queue length does an incoming req see
system.mem_ctrls.wrQLenPdf::1                       0                       # What write queue length does an incoming req see
system.mem_ctrls.wrQLenPdf::2                       0                       # What write queue length does an incoming req see
system.mem_ctrls.wrQLenPdf::3                       0                       # What write queue length does an incoming req see
system.mem_ctrls.wrQLenPdf::4                       0                       # What write queue length does an incoming req see
system.mem_ctrls.wrQLenPdf::5                       0                       # What write queue length does an incoming req see
system.mem_ctrls.wrQLenPdf::6                       0                       # What write queue length does an incoming req see
system.mem_ctrls.wrQLenPdf::7                       0                       # What write queue length does an incoming req see
system.mem_ctrls.wrQLenPdf::8                       0                       # What write queue length does an incoming req see
system.mem_ctrls.wrQLenPdf::9                       0                       # What write queue length does an incoming req see
system.mem_ctrls.wrQLenPdf::10                      0                       # What write queue length does an incoming req see
system.mem_ctrls.wrQLenPdf::11                      0                       # What write queue length does an incoming req see
system.mem_ctrls.wrQLenPdf::12                      0                       # What write queue length does an incoming req see
system.mem_ctrls.wrQLenPdf::13                      0                       # What write queue length does an incoming req see
system.mem_ctrls.wrQLenPdf::14                      0                       # What write queue length does an incoming req see
system.mem_ctrls.wrQLenPdf::15                      0                       # What write queue length does an incoming req see
system.mem_ctrls.wrQLenPdf::16                      0                       # What write queue length does an incoming req see
system.mem_ctrls.wrQLenPdf::17                      0                       # What write queue length does an incoming req see
system.mem_ctrls.wrQLenPdf::18                      0                       # What write queue length does an incoming req see
system.mem_ctrls.wrQLenPdf::19                      0                       # What write queue length does an incoming req see
system.mem_ctrls.wrQLenPdf::20                      0                       # What write queue length does an incoming req see
system.mem_ctrls.wrQLenPdf::21                      0                       # What write queue length does an incoming req see
system.mem_ctrls.wrQLenPdf::22                      0                       # What write queue length does an incoming req see
system.mem_ctrls.wrQLenPdf::23                      0                       # What write queue length does an incoming req see
system.mem_ctrls.wrQLenPdf::24                      0                       # What write queue length does an incoming req see
system.mem_ctrls.wrQLenPdf::25                      0                       # What write queue length does an incoming req see
system.mem_ctrls.wrQLenPdf::26                      0                       # What write queue length does an incoming req see
system.mem_ctrls.wrQLenPdf::27                      0                       # What write queue length does an incoming req see
system.mem_ctrls.wrQLenPdf::28                      0                       # What write queue length does an incoming req see
system.mem_ctrls.wrQLenPdf::29                      0                       # What write queue length does an incoming req see
system.mem_ctrls.wrQLenPdf::30                      0                       # What write queue length does an incoming req see
system.mem_ctrls.wrQLenPdf::31                      0                       # What write queue length does an incoming req see
system.mem_ctrls.wrQLenPdf::32                      0                       # What write queue length does an incoming req see
system.mem_ctrls.wrQLenPdf::33                      0                       # What write queue length does an incoming req see
system.mem_ctrls.wrQLenPdf::34                      0                       # What write queue length does an incoming req see
system.mem_ctrls.wrQLenPdf::35                      0                       # What write queue length does an incoming req see
system.mem_ctrls.wrQLenPdf::36                      0                       # What write queue length does an incoming req see
system.mem_ctrls.wrQLenPdf::37                      0                       # What write queue length does an incoming req see
system.mem_ctrls.wrQLenPdf::38                      0                       # What write queue length does an incoming req see
system.mem_ctrls.wrQLenPdf::39                      0                       # What write queue length does an incoming req see
system.mem_ctrls.wrQLenPdf::40                      0                       # What write queue length does an incoming req see
system.mem_ctrls.wrQLenPdf::41                      0                       # What write queue length does an incoming req see
system.mem_ctrls.wrQLenPdf::42                      0                       # What write queue length does an incoming req see
system.mem_ctrls.wrQLenPdf::43                      0                       # What write queue length does an incoming req see
system.mem_ctrls.wrQLenPdf::44                      0                       # What write queue length does an incoming req see
system.mem_ctrls.wrQLenPdf::45                      0                       # What write queue length does an incoming req see
system.mem_ctrls.wrQLenPdf::46                      0                       # What write queue length does an incoming req see
system.mem_ctrls.wrQLenPdf::47                      0                       # What write queue length does an incoming req see
system.mem_ctrls.wrQLenPdf::48                      0                       # What write queue length does an incoming req see
system.mem_ctrls.wrQLenPdf::49                      0                       # What write queue length does an incoming req see
system.mem_ctrls.wrQLenPdf::50                      0                       # What write queue length does an incoming req see
system.mem_ctrls.wrQLenPdf::51                      0                       # What write queue length does an incoming req see
system.mem_ctrls.wrQLenPdf::52                      0                       # What write queue length does an incoming req see
system.mem_ctrls.wrQLenPdf::53                      0                       # What write queue length does an incoming req see
system.mem_ctrls.wrQLenPdf::54                      0                       # What write queue length does an incoming req see
system.mem_ctrls.wrQLenPdf::55                      0                       # What write queue length does an incoming req see
system.mem_ctrls.wrQLenPdf::56                      0                       # What write queue length does an incoming req see
system.mem_ctrls.wrQLenPdf::57                      0                       # What write queue length does an incoming req see
system.mem_ctrls.wrQLenPdf::58                      0                       # What write queue length does an incoming req see
system.mem_ctrls.wrQLenPdf::59                      0                       # What write queue length does an incoming req see
system.mem_ctrls.wrQLenPdf::60                      0                       # What write queue length does an incoming req see
system.mem_ctrls.wrQLenPdf::61                      0                       # What write queue length does an incoming req see
system.mem_ctrls.wrQLenPdf::62                      0                       # What write queue length does an incoming req see
system.mem_ctrls.wrQLenPdf::63                      0                       # What write queue length does an incoming req see
system.mem_ctrls.totQLat                            0                       # Total ticks spent queuing
system.mem_ctrls.totMemAccLat                       0                       # Total ticks spent from burst creation until serviced by the DRAM
system.mem_ctrls.totBusLat                          0                       # Total ticks spent in databus transfers
system.mem_ctrls.avgQLat                          nan                       # Average queueing delay per DRAM burst
system.mem_ctrls.avgBusLat                        nan                       # Average bus latency per DRAM burst
system.mem_ctrls.avgMemAccLat                     nan                       # Average memory access latency per DRAM burst
system.mem_ctrls.avgRdBW                         0.00                       # Average DRAM read bandwidth in MiByte/s
system.mem_ctrls.avgWrBW                         0.00                       # Average achieved write bandwidth in MiByte/s
system.mem_ctrls.avgRdBWSys                      0.00                       # Average system read bandwidth in MiByte/s
system.mem_ctrls.avgWrBWSys                      0.00                       # Average system write bandwidth in MiByte/s
system.mem_ctrls.peakBW                      12800.00                       # Theoretical peak bandwidth in MiByte/s
system.mem_ctrls.busUtil                         0.00                       # Data bus utilization in percentage
system.mem_ctrls.busUtilRead                     0.00                       # Data bus utilization in percentage for reads
system.mem_ctrls.busUtilWrite                    0.00                       # Data bus utilization in percentage for writes
system.mem_ctrls.avgRdQLen                       0.00                       # Average read queue length when enqueuing
system.mem_ctrls.avgWrQLen                       0.00                       # Average write queue length when enqueuing
system.mem_ctrls.readRowHits                        0                       # Number of row buffer hits during reads
system.mem_ctrls.writeRowHits                       0                       # Number of row buffer hits during writes
system.mem_ctrls.readRowHitRate                   nan                       # Row buffer hit rate for reads
system.mem_ctrls.writeRowHitRate                  nan                       # Row buffer hit rate for writes
system.mem_ctrls.avgGap                           nan                       # Average gap between requests
system.mem_ctrls.pageHitRate                      nan                       # Row buffer hit rate, read and write combined
system.mem_ctrls.memoryStateTime::IDLE   3088449631250                       # Time in different power states
system.mem_ctrls.memoryStateTime::REF    106692820000                       # Time in different power states
system.mem_ctrls.memoryStateTime::PRE_PDN            0                       # Time in different power states
system.mem_ctrls.memoryStateTime::ACT               0                       # Time in different power states
system.mem_ctrls.memoryStateTime::ACT_PDN            0                       # Time in different power states
system.mem_ctrls.actEnergy::0                       0                       # Energy for activate commands per rank (pJ)
system.mem_ctrls.actEnergy::1                       0                       # Energy for activate commands per rank (pJ)
system.mem_ctrls.preEnergy::0                       0                       # Energy for precharge commands per rank (pJ)
system.mem_ctrls.preEnergy::1                       0                       # Energy for precharge commands per rank (pJ)
system.mem_ctrls.readEnergy::0                      0                       # Energy for read commands per rank (pJ)
system.mem_ctrls.readEnergy::1                      0                       # Energy for read commands per rank (pJ)
system.mem_ctrls.writeEnergy::0                     0                       # Energy for write commands per rank (pJ)
system.mem_ctrls.writeEnergy::1                     0                       # Energy for write commands per rank (pJ)
system.mem_ctrls.refreshEnergy::0        208691155920                       # Energy for refresh commands per rank (pJ)
system.mem_ctrls.refreshEnergy::1        208691155920                       # Energy for refresh commands per rank (pJ)
system.mem_ctrls.actBackEnergy::0         69118481295                       # Energy for active background per rank (pJ)
system.mem_ctrls.actBackEnergy::1         69118481295                       # Energy for active background per rank (pJ)
system.mem_ctrls.preBackEnergy::0        1856455215750                       # Energy for precharge background per rank (pJ)
system.mem_ctrls.preBackEnergy::1        1856455215750                       # Energy for precharge background per rank (pJ)
system.mem_ctrls.totalEnergy::0          2134264852965                       # Total energy per rank (pJ)
system.mem_ctrls.totalEnergy::1          2134264852965                       # Total energy per rank (pJ)
system.mem_ctrls.averagePower::0           667.971740                       # Core power per rank (mW)
system.mem_ctrls.averagePower::1           667.971740                       # Core power per rank (mW)
system.cpu_voltage_domain.voltage                   1                       # Voltage in Volts
system.cpu_clk_domain.clock                       500                       # Clock period in ticks
system.tol2bus.trans_dist::ReadReq         1140583285                       # Transaction distribution
system.tol2bus.trans_dist::ReadResp        1140583303                       # Transaction distribution
system.tol2bus.trans_dist::WriteReq             49736                       # Transaction distribution
system.tol2bus.trans_dist::WriteResp            49736                       # Transaction distribution
system.tol2bus.trans_dist::Writeback          4150411                       # Transaction distribution
system.tol2bus.trans_dist::SoftPFReq               18                       # Transaction distribution
system.tol2bus.trans_dist::SoftPFResp              18                       # Transaction distribution
system.tol2bus.trans_dist::UpgradeReq          299581                       # Transaction distribution
system.tol2bus.trans_dist::SCUpgradeReq        212648                       # Transaction distribution
system.tol2bus.trans_dist::UpgradeResp         512229                       # Transaction distribution
system.tol2bus.trans_dist::ReadExReq          2335349                       # Transaction distribution
system.tol2bus.trans_dist::ReadExResp         2335349                       # Transaction distribution
system.tol2bus.trans_dist::LoadLockedReq           18                       # Transaction distribution
system.tol2bus.trans_dist::StoreCondReq            18                       # Transaction distribution
system.tol2bus.trans_dist::StoreCondResp           18                       # Transaction distribution
system.tol2bus.pkt_count_system.cpu0.icache.mem_side::system.l2.cpu_side      7039290                       # Packet count per connected master and slave (bytes)
system.tol2bus.pkt_count_system.cpu0.dcache.mem_side::system.l2.cpu_side      5014829                       # Packet count per connected master and slave (bytes)
system.tol2bus.pkt_count_system.cpu0.itb.walker.dma::system.l2.cpu_side       148148                       # Packet count per connected master and slave (bytes)
system.tol2bus.pkt_count_system.cpu0.dtb.walker.dma::system.l2.cpu_side       388934                       # Packet count per connected master and slave (bytes)
system.tol2bus.pkt_count_system.cpu1.icache.mem_side::system.l2.cpu_side      3643696                       # Packet count per connected master and slave (bytes)
system.tol2bus.pkt_count_system.cpu1.dcache.mem_side::system.l2.cpu_side      2713290                       # Packet count per connected master and slave (bytes)
system.tol2bus.pkt_count_system.cpu1.itb.walker.dma::system.l2.cpu_side       108792                       # Packet count per connected master and slave (bytes)
system.tol2bus.pkt_count_system.cpu1.dtb.walker.dma::system.l2.cpu_side       235572                       # Packet count per connected master and slave (bytes)
system.tol2bus.pkt_count_system.cpu2.icache.mem_side::system.l2.cpu_side     83506224                       # Packet count per connected master and slave (bytes)
system.tol2bus.pkt_count_system.cpu2.dcache.mem_side::system.l2.cpu_side     29622401                       # Packet count per connected master and slave (bytes)
system.tol2bus.pkt_count_system.cpu2.itb.walker.dma::system.l2.cpu_side       133392                       # Packet count per connected master and slave (bytes)
system.tol2bus.pkt_count_system.cpu2.dtb.walker.dma::system.l2.cpu_side       297264                       # Packet count per connected master and slave (bytes)
system.tol2bus.pkt_count_system.cpu3.icache.mem_side::system.l2.cpu_side    161991674                       # Packet count per connected master and slave (bytes)
system.tol2bus.pkt_count_system.cpu3.dcache.mem_side::system.l2.cpu_side     54605243                       # Packet count per connected master and slave (bytes)
system.tol2bus.pkt_count_system.cpu3.itb.walker.dma::system.l2.cpu_side       147368                       # Packet count per connected master and slave (bytes)
system.tol2bus.pkt_count_system.cpu3.dtb.walker.dma::system.l2.cpu_side       282762                       # Packet count per connected master and slave (bytes)
system.tol2bus.pkt_count_system.cpu4.icache.mem_side::system.l2.cpu_side    243789172                       # Packet count per connected master and slave (bytes)
system.tol2bus.pkt_count_system.cpu4.dcache.mem_side::system.l2.cpu_side     82497315                       # Packet count per connected master and slave (bytes)
system.tol2bus.pkt_count_system.cpu4.itb.walker.dma::system.l2.cpu_side       216448                       # Packet count per connected master and slave (bytes)
system.tol2bus.pkt_count_system.cpu4.dtb.walker.dma::system.l2.cpu_side       480684                       # Packet count per connected master and slave (bytes)
system.tol2bus.pkt_count_system.cpu5.icache.mem_side::system.l2.cpu_side    321446644                       # Packet count per connected master and slave (bytes)
system.tol2bus.pkt_count_system.cpu5.dcache.mem_side::system.l2.cpu_side    107896991                       # Packet count per connected master and slave (bytes)
system.tol2bus.pkt_count_system.cpu5.itb.walker.dma::system.l2.cpu_side        55734                       # Packet count per connected master and slave (bytes)
system.tol2bus.pkt_count_system.cpu5.dtb.walker.dma::system.l2.cpu_side       143200                       # Packet count per connected master and slave (bytes)
system.tol2bus.pkt_count_system.cpu6.icache.mem_side::system.l2.cpu_side    402864674                       # Packet count per connected master and slave (bytes)
system.tol2bus.pkt_count_system.cpu6.dcache.mem_side::system.l2.cpu_side    135752777                       # Packet count per connected master and slave (bytes)
system.tol2bus.pkt_count_system.cpu6.itb.walker.dma::system.l2.cpu_side       109242                       # Packet count per connected master and slave (bytes)
system.tol2bus.pkt_count_system.cpu6.dtb.walker.dma::system.l2.cpu_side       242808                       # Packet count per connected master and slave (bytes)
system.tol2bus.pkt_count_system.cpu7.icache.mem_side::system.l2.cpu_side    482994496                       # Packet count per connected master and slave (bytes)
system.tol2bus.pkt_count_system.cpu7.dcache.mem_side::system.l2.cpu_side    162385407                       # Packet count per connected master and slave (bytes)
system.tol2bus.pkt_count_system.cpu7.itb.walker.dma::system.l2.cpu_side        97980                       # Packet count per connected master and slave (bytes)
system.tol2bus.pkt_count_system.cpu7.dtb.walker.dma::system.l2.cpu_side       259266                       # Packet count per connected master and slave (bytes)
system.tol2bus.pkt_count::total            2291111717                       # Packet count per connected master and slave (bytes)
system.tol2bus.pkt_size_system.cpu0.icache.mem_side::system.l2.cpu_side    224715960                       # Cumulative packet size per connected master and slave (bytes)
system.tol2bus.pkt_size_system.cpu0.dcache.mem_side::system.l2.cpu_side    183172896                       # Cumulative packet size per connected master and slave (bytes)
system.tol2bus.pkt_size_system.cpu0.itb.walker.dma::system.l2.cpu_side       296296                       # Cumulative packet size per connected master and slave (bytes)
system.tol2bus.pkt_size_system.cpu0.dtb.walker.dma::system.l2.cpu_side       777868                       # Cumulative packet size per connected master and slave (bytes)
system.tol2bus.pkt_size_system.cpu1.icache.mem_side::system.l2.cpu_side    116587472                       # Cumulative packet size per connected master and slave (bytes)
system.tol2bus.pkt_size_system.cpu1.dcache.mem_side::system.l2.cpu_side     96935636                       # Cumulative packet size per connected master and slave (bytes)
system.tol2bus.pkt_size_system.cpu1.itb.walker.dma::system.l2.cpu_side       217584                       # Cumulative packet size per connected master and slave (bytes)
system.tol2bus.pkt_size_system.cpu1.dtb.walker.dma::system.l2.cpu_side       471144                       # Cumulative packet size per connected master and slave (bytes)
system.tol2bus.pkt_size_system.cpu2.icache.mem_side::system.l2.cpu_side    271828068                       # Cumulative packet size per connected master and slave (bytes)
system.tol2bus.pkt_size_system.cpu2.dcache.mem_side::system.l2.cpu_side    161620820                       # Cumulative packet size per connected master and slave (bytes)
system.tol2bus.pkt_size_system.cpu2.itb.walker.dma::system.l2.cpu_side       266784                       # Cumulative packet size per connected master and slave (bytes)
system.tol2bus.pkt_size_system.cpu2.dtb.walker.dma::system.l2.cpu_side       594528                       # Cumulative packet size per connected master and slave (bytes)
system.tol2bus.pkt_size_system.cpu3.icache.mem_side::system.l2.cpu_side    382609768                       # Cumulative packet size per connected master and slave (bytes)
system.tol2bus.pkt_size_system.cpu3.dcache.mem_side::system.l2.cpu_side    153158174                       # Cumulative packet size per connected master and slave (bytes)
system.tol2bus.pkt_size_system.cpu3.itb.walker.dma::system.l2.cpu_side       294736                       # Cumulative packet size per connected master and slave (bytes)
system.tol2bus.pkt_size_system.cpu3.dtb.walker.dma::system.l2.cpu_side       565524                       # Cumulative packet size per connected master and slave (bytes)
system.tol2bus.pkt_size_system.cpu4.icache.mem_side::system.l2.cpu_side    600050564                       # Cumulative packet size per connected master and slave (bytes)
system.tol2bus.pkt_size_system.cpu4.dcache.mem_side::system.l2.cpu_side    251416171                       # Cumulative packet size per connected master and slave (bytes)
system.tol2bus.pkt_size_system.cpu4.itb.walker.dma::system.l2.cpu_side       432896                       # Cumulative packet size per connected master and slave (bytes)
system.tol2bus.pkt_size_system.cpu4.dtb.walker.dma::system.l2.cpu_side       961368                       # Cumulative packet size per connected master and slave (bytes)
system.tol2bus.pkt_size_system.cpu5.icache.mem_side::system.l2.cpu_side    684802448                       # Cumulative packet size per connected master and slave (bytes)
system.tol2bus.pkt_size_system.cpu5.dcache.mem_side::system.l2.cpu_side    257628481                       # Cumulative packet size per connected master and slave (bytes)
system.tol2bus.pkt_size_system.cpu5.itb.walker.dma::system.l2.cpu_side       111468                       # Cumulative packet size per connected master and slave (bytes)
system.tol2bus.pkt_size_system.cpu5.dtb.walker.dma::system.l2.cpu_side       286400                       # Cumulative packet size per connected master and slave (bytes)
system.tol2bus.pkt_size_system.cpu6.icache.mem_side::system.l2.cpu_side    889810288                       # Cumulative packet size per connected master and slave (bytes)
system.tol2bus.pkt_size_system.cpu6.dcache.mem_side::system.l2.cpu_side    354956326                       # Cumulative packet size per connected master and slave (bytes)
system.tol2bus.pkt_size_system.cpu6.itb.walker.dma::system.l2.cpu_side       218484                       # Cumulative packet size per connected master and slave (bytes)
system.tol2bus.pkt_size_system.cpu6.dtb.walker.dma::system.l2.cpu_side       485616                       # Cumulative packet size per connected master and slave (bytes)
system.tol2bus.pkt_size_system.cpu7.icache.mem_side::system.l2.cpu_side   1053595832                       # Cumulative packet size per connected master and slave (bytes)
system.tol2bus.pkt_size_system.cpu7.dcache.mem_side::system.l2.cpu_side    407583382                       # Cumulative packet size per connected master and slave (bytes)
system.tol2bus.pkt_size_system.cpu7.itb.walker.dma::system.l2.cpu_side       195960                       # Cumulative packet size per connected master and slave (bytes)
system.tol2bus.pkt_size_system.cpu7.dtb.walker.dma::system.l2.cpu_side       518532                       # Cumulative packet size per connected master and slave (bytes)
system.tol2bus.pkt_size::total             6097167474                       # Cumulative packet size per connected master and slave (bytes)
system.tol2bus.snoops                          181762                       # Total snoops (count)
system.tol2bus.snoop_fanout::samples         27511824                       # Request fanout histogram
system.tol2bus.snoop_fanout::mean           47.006503                       # Request fanout histogram
system.tol2bus.snoop_fanout::stdev           0.080376                       # Request fanout histogram
system.tol2bus.snoop_fanout::underflows             0      0.00%      0.00% # Request fanout histogram
system.tol2bus.snoop_fanout::0                      0      0.00%      0.00% # Request fanout histogram
system.tol2bus.snoop_fanout::1                      0      0.00%      0.00% # Request fanout histogram
system.tol2bus.snoop_fanout::2                      0      0.00%      0.00% # Request fanout histogram
system.tol2bus.snoop_fanout::3                      0      0.00%      0.00% # Request fanout histogram
system.tol2bus.snoop_fanout::4                      0      0.00%      0.00% # Request fanout histogram
system.tol2bus.snoop_fanout::5                      0      0.00%      0.00% # Request fanout histogram
system.tol2bus.snoop_fanout::6                      0      0.00%      0.00% # Request fanout histogram
system.tol2bus.snoop_fanout::7                      0      0.00%      0.00% # Request fanout histogram
system.tol2bus.snoop_fanout::8                      0      0.00%      0.00% # Request fanout histogram
system.tol2bus.snoop_fanout::9                      0      0.00%      0.00% # Request fanout histogram
system.tol2bus.snoop_fanout::10                     0      0.00%      0.00% # Request fanout histogram
system.tol2bus.snoop_fanout::11                     0      0.00%      0.00% # Request fanout histogram
system.tol2bus.snoop_fanout::12                     0      0.00%      0.00% # Request fanout histogram
system.tol2bus.snoop_fanout::13                     0      0.00%      0.00% # Request fanout histogram
system.tol2bus.snoop_fanout::14                     0      0.00%      0.00% # Request fanout histogram
system.tol2bus.snoop_fanout::15                     0      0.00%      0.00% # Request fanout histogram
system.tol2bus.snoop_fanout::16                     0      0.00%      0.00% # Request fanout histogram
system.tol2bus.snoop_fanout::17                     0      0.00%      0.00% # Request fanout histogram
system.tol2bus.snoop_fanout::18                     0      0.00%      0.00% # Request fanout histogram
system.tol2bus.snoop_fanout::19                     0      0.00%      0.00% # Request fanout histogram
system.tol2bus.snoop_fanout::20                     0      0.00%      0.00% # Request fanout histogram
system.tol2bus.snoop_fanout::21                     0      0.00%      0.00% # Request fanout histogram
system.tol2bus.snoop_fanout::22                     0      0.00%      0.00% # Request fanout histogram
system.tol2bus.snoop_fanout::23                     0      0.00%      0.00% # Request fanout histogram
system.tol2bus.snoop_fanout::24                     0      0.00%      0.00% # Request fanout histogram
system.tol2bus.snoop_fanout::25                     0      0.00%      0.00% # Request fanout histogram
system.tol2bus.snoop_fanout::26                     0      0.00%      0.00% # Request fanout histogram
system.tol2bus.snoop_fanout::27                     0      0.00%      0.00% # Request fanout histogram
system.tol2bus.snoop_fanout::28                     0      0.00%      0.00% # Request fanout histogram
system.tol2bus.snoop_fanout::29                     0      0.00%      0.00% # Request fanout histogram
system.tol2bus.snoop_fanout::30                     0      0.00%      0.00% # Request fanout histogram
system.tol2bus.snoop_fanout::31                     0      0.00%      0.00% # Request fanout histogram
system.tol2bus.snoop_fanout::32                     0      0.00%      0.00% # Request fanout histogram
system.tol2bus.snoop_fanout::33                     0      0.00%      0.00% # Request fanout histogram
system.tol2bus.snoop_fanout::34                     0      0.00%      0.00% # Request fanout histogram
system.tol2bus.snoop_fanout::35                     0      0.00%      0.00% # Request fanout histogram
system.tol2bus.snoop_fanout::36                     0      0.00%      0.00% # Request fanout histogram
system.tol2bus.snoop_fanout::37                     0      0.00%      0.00% # Request fanout histogram
system.tol2bus.snoop_fanout::38                     0      0.00%      0.00% # Request fanout histogram
system.tol2bus.snoop_fanout::39                     0      0.00%      0.00% # Request fanout histogram
system.tol2bus.snoop_fanout::40                     0      0.00%      0.00% # Request fanout histogram
system.tol2bus.snoop_fanout::41                     0      0.00%      0.00% # Request fanout histogram
system.tol2bus.snoop_fanout::42                     0      0.00%      0.00% # Request fanout histogram
system.tol2bus.snoop_fanout::43                     0      0.00%      0.00% # Request fanout histogram
system.tol2bus.snoop_fanout::44                     0      0.00%      0.00% # Request fanout histogram
system.tol2bus.snoop_fanout::45                     0      0.00%      0.00% # Request fanout histogram
system.tol2bus.snoop_fanout::46                     0      0.00%      0.00% # Request fanout histogram
system.tol2bus.snoop_fanout::47              27332928     99.35%     99.35% # Request fanout histogram
system.tol2bus.snoop_fanout::48                178896      0.65%    100.00% # Request fanout histogram
system.tol2bus.snoop_fanout::overflows              0      0.00%    100.00% # Request fanout histogram
system.tol2bus.snoop_fanout::min_value             47                       # Request fanout histogram
system.tol2bus.snoop_fanout::max_value             48                       # Request fanout histogram
system.tol2bus.snoop_fanout::total           27511824                       # Request fanout histogram
system.membus.trans_dist::ReadReq          1121281139                       # Transaction distribution
system.membus.trans_dist::ReadResp         1121281157                       # Transaction distribution
system.membus.trans_dist::WriteReq              49736                       # Transaction distribution
system.membus.trans_dist::WriteResp             49736                       # Transaction distribution
system.membus.trans_dist::Writeback           1497080                       # Transaction distribution
system.membus.trans_dist::SoftPFReq                18                       # Transaction distribution
system.membus.trans_dist::SoftPFResp               18                       # Transaction distribution
system.membus.trans_dist::WriteInvalidateReq       170744                       # Transaction distribution
system.membus.trans_dist::WriteInvalidateResp       170744                       # Transaction distribution
system.membus.trans_dist::UpgradeReq           304555                       # Transaction distribution
system.membus.trans_dist::SCUpgradeReq         209335                       # Transaction distribution
system.membus.trans_dist::UpgradeResp          140820                       # Transaction distribution
system.membus.trans_dist::ReadExReq           1296690                       # Transaction distribution
system.membus.trans_dist::ReadExResp          1173738                       # Transaction distribution
system.membus.trans_dist::LoadLockedReq            18                       # Transaction distribution
system.membus.trans_dist::StoreCondReq             18                       # Transaction distribution
system.membus.trans_dist::StoreCondResp            18                       # Transaction distribution
system.membus.pkt_count_system.iocache.mem_side::system.mem_ctrls.port       357792                       # Packet count per connected master and slave (bytes)
system.membus.pkt_count_system.iocache.mem_side::total       357792                       # Packet count per connected master and slave (bytes)
system.membus.pkt_count_system.l2.mem_side::system.bridge.slave       157478                       # Packet count per connected master and slave (bytes)
system.membus.pkt_count_system.l2.mem_side::system.realview.nvmem.port          178                       # Packet count per connected master and slave (bytes)
system.membus.pkt_count_system.l2.mem_side::system.realview.gic.pio        42286                       # Packet count per connected master and slave (bytes)
system.membus.pkt_count_system.l2.mem_side::system.mem_ctrls.port   2247067830                       # Packet count per connected master and slave (bytes)
system.membus.pkt_count_system.l2.mem_side::total   2247267772                       # Packet count per connected master and slave (bytes)
system.membus.pkt_count::total             2247625564                       # Packet count per connected master and slave (bytes)
system.membus.pkt_size_system.iocache.mem_side::system.mem_ctrls.port     11449344                       # Cumulative packet size per connected master and slave (bytes)
system.membus.pkt_size_system.iocache.mem_side::total     11449344                       # Cumulative packet size per connected master and slave (bytes)
system.membus.pkt_size_system.l2.mem_side::system.bridge.slave       192648                       # Cumulative packet size per connected master and slave (bytes)
system.membus.pkt_size_system.l2.mem_side::system.realview.nvmem.port          356                       # Cumulative packet size per connected master and slave (bytes)
system.membus.pkt_size_system.l2.mem_side::system.realview.gic.pio        84572                       # Cumulative packet size per connected master and slave (bytes)
system.membus.pkt_size_system.l2.mem_side::system.mem_ctrls.port   4717302358                       # Cumulative packet size per connected master and slave (bytes)
system.membus.pkt_size_system.l2.mem_side::total   4717579934                       # Cumulative packet size per connected master and slave (bytes)
system.membus.pkt_size::total              4729029278                       # Cumulative packet size per connected master and slave (bytes)
system.membus.snoops                                0                       # Total snoops (count)
system.membus.snoop_fanout::samples           4511197                       # Request fanout histogram
system.membus.snoop_fanout::mean                    1                       # Request fanout histogram
system.membus.snoop_fanout::stdev                   0                       # Request fanout histogram
system.membus.snoop_fanout::underflows              0      0.00%      0.00% # Request fanout histogram
system.membus.snoop_fanout::0                       0      0.00%      0.00% # Request fanout histogram
system.membus.snoop_fanout::1                 4511197    100.00%    100.00% # Request fanout histogram
system.membus.snoop_fanout::2                       0      0.00%    100.00% # Request fanout histogram
system.membus.snoop_fanout::overflows               0      0.00%    100.00% # Request fanout histogram
system.membus.snoop_fanout::min_value               1                       # Request fanout histogram
[...]
system.cpu7.icache.tags.avg_refs           216.144646                       # Average number of references to valid blocks.
system.cpu7.icache.tags.warmup_cycle                0                       # Cycle when the warmup percentage was hit.
system.cpu7.icache.tags.occ_blocks::cpu7.inst          512                       # Average occupied blocks per requestor
system.cpu7.icache.tags.occ_percent::cpu7.inst            1                       # Average percentage of cache occupancy
system.cpu7.icache.tags.occ_percent::total            1                       # Average percentage of cache occupancy
system.cpu7.icache.tags.occ_task_id_blocks::1024          512                       # Occupied blocks per task id
system.cpu7.icache.tags.age_task_id_blocks_1024::2          466                       # Occupied blocks per task id
system.cpu7.icache.tags.age_task_id_blocks_1024::3           31                       # Occupied blocks per task id
system.cpu7.icache.tags.age_task_id_blocks_1024::4           15                       # Occupied blocks per task id
system.cpu7.icache.tags.occ_task_id_percent::1024            1                       # Percentage of cache occupancy per task id
system.cpu7.icache.tags.tag_accesses          8771772                       # Number of tag accesses
system.cpu7.icache.tags.data_accesses         8771772                       # Number of data accesses
system.cpu7.icache.ReadReq_hits::cpu7.inst      4355502                       # number of ReadReq hits
system.cpu7.icache.ReadReq_hits::total        4355502                       # number of ReadReq hits
system.cpu7.icache.demand_hits::cpu7.inst      4355502                       # number of demand (read+write) hits
system.cpu7.icache.demand_hits::total         4355502                       # number of demand (read+write) hits
system.cpu7.icache.overall_hits::cpu7.inst      4355502                       # number of overall hits
system.cpu7.icache.overall_hits::total        4355502                       # number of overall hits
system.cpu7.icache.ReadReq_misses::cpu7.inst        20256                       # number of ReadReq misses
system.cpu7.icache.ReadReq_misses::total        20256                       # number of ReadReq misses
system.cpu7.icache.demand_misses::cpu7.inst        20256                       # number of demand (read+write) misses
system.cpu7.icache.demand_misses::total         20256                       # number of demand (read+write) misses
system.cpu7.icache.overall_misses::cpu7.inst        20256                       # number of overall misses
system.cpu7.icache.overall_misses::total        20256                       # number of overall misses
system.cpu7.icache.ReadReq_accesses::cpu7.inst      4375758                       # number of ReadReq accesses(hits+misses)
system.cpu7.icache.ReadReq_accesses::total      4375758                       # number of ReadReq accesses(hits+misses)
system.cpu7.icache.demand_accesses::cpu7.inst      4375758                       # number of demand (read+write) accesses
system.cpu7.icache.demand_accesses::total      4375758                       # number of demand (read+write) accesses
system.cpu7.icache.overall_accesses::cpu7.inst      4375758                       # number of overall (read+write) accesses
system.cpu7.icache.overall_accesses::total      4375758                       # number of overall (read+write) accesses
system.cpu7.icache.ReadReq_miss_rate::cpu7.inst     0.004629                       # miss rate for ReadReq accesses
system.cpu7.icache.ReadReq_miss_rate::total     0.004629                       # miss rate for ReadReq accesses
system.cpu7.icache.demand_miss_rate::cpu7.inst     0.004629                       # miss rate for demand accesses
system.cpu7.icache.demand_miss_rate::total     0.004629                       # miss rate for demand accesses
system.cpu7.icache.overall_miss_rate::cpu7.inst     0.004629                       # miss rate for overall accesses
system.cpu7.icache.overall_miss_rate::total     0.004629                       # miss rate for overall accesses
system.cpu7.icache.blocked_cycles::no_mshrs            0                       # number of cycles access was blocked
system.cpu7.icache.blocked_cycles::no_targets            0                       # number of cycles access was blocked
system.cpu7.icache.blocked::no_mshrs                0                       # number of cycles access was blocked
system.cpu7.icache.blocked::no_targets              0                       # number of cycles access was blocked
system.cpu7.icache.avg_blocked_cycles::no_mshrs          nan                       # average number of cycles each access was blocked
system.cpu7.icache.avg_blocked_cycles::no_targets          nan                       # average number of cycles each access was blocked
system.cpu7.icache.fast_writes                      0                       # number of fast writes performed
system.cpu7.icache.cache_copies                     0                       # number of cache copies performed
system.cpu7.icache.no_allocate_misses               0                       # Number of misses that were no-allocate
system.cpu7.dcache.tags.replacements            14336                       # number of replacements
system.cpu7.dcache.tags.tagsinuse          822.583409                       # Cycle average of tags in use
system.cpu7.dcache.tags.total_refs            1032039                       # Total number of references to valid blocks.
system.cpu7.dcache.tags.sampled_refs            15149                       # Sample count of references to valid blocks.
system.cpu7.dcache.tags.avg_refs            68.125883                       # Average number of references to valid blocks.
system.cpu7.dcache.tags.warmup_cycle                0                       # Cycle when the warmup percentage was hit.
system.cpu7.dcache.tags.occ_blocks::cpu7.data   822.583409                       # Average occupied blocks per requestor
system.cpu7.dcache.tags.occ_percent::cpu7.data     0.803304                       # Average percentage of cache occupancy
system.cpu7.dcache.tags.occ_percent::total     0.803304                       # Average percentage of cache occupancy
system.cpu7.dcache.tags.occ_task_id_blocks::1024          813                       # Occupied blocks per task id
system.cpu7.dcache.tags.age_task_id_blocks_1024::2          646                       # Occupied blocks per task id
system.cpu7.dcache.tags.age_task_id_blocks_1024::3          167                       # Occupied blocks per task id
system.cpu7.dcache.tags.occ_task_id_percent::1024     0.793945                       # Percentage of cache occupancy per task id
system.cpu7.dcache.tags.tag_accesses          1993672                       # Number of tag accesses
system.cpu7.dcache.tags.data_accesses         1993672                       # Number of data accesses
system.cpu7.dcache.ReadReq_hits::cpu7.data       574333                       # number of ReadReq hits
system.cpu7.dcache.ReadReq_hits::total         574333                       # number of ReadReq hits
system.cpu7.dcache.WriteReq_hits::cpu7.data       360109                       # number of WriteReq hits
system.cpu7.dcache.WriteReq_hits::total        360109                       # number of WriteReq hits
system.cpu7.dcache.SoftPFReq_hits::cpu7.data         7963                       # number of SoftPFReq hits
system.cpu7.dcache.SoftPFReq_hits::total         7963                       # number of SoftPFReq hits
system.cpu7.dcache.LoadLockedReq_hits::cpu7.data        11704                       # number of LoadLockedReq hits
system.cpu7.dcache.LoadLockedReq_hits::total        11704                       # number of LoadLockedReq hits
system.cpu7.dcache.StoreCondReq_hits::cpu7.data        11047                       # number of StoreCondReq hits
system.cpu7.dcache.StoreCondReq_hits::total        11047                       # number of StoreCondReq hits
system.cpu7.dcache.demand_hits::cpu7.data       934442                       # number of demand (read+write) hits
system.cpu7.dcache.demand_hits::total          934442                       # number of demand (read+write) hits
system.cpu7.dcache.overall_hits::cpu7.data       942405                       # number of overall hits
system.cpu7.dcache.overall_hits::total         942405                       # number of overall hits
system.cpu7.dcache.ReadReq_misses::cpu7.data        10033                       # number of ReadReq misses
system.cpu7.dcache.ReadReq_misses::total        10033                       # number of ReadReq misses
system.cpu7.dcache.WriteReq_misses::cpu7.data         6761                       # number of WriteReq misses
system.cpu7.dcache.WriteReq_misses::total         6761                       # number of WriteReq misses
system.cpu7.dcache.SoftPFReq_misses::cpu7.data         4425                       # number of SoftPFReq misses
system.cpu7.dcache.SoftPFReq_misses::total         4425                       # number of SoftPFReq misses
system.cpu7.dcache.LoadLockedReq_misses::cpu7.data          145                       # number of LoadLockedReq misses
system.cpu7.dcache.LoadLockedReq_misses::total          145                       # number of LoadLockedReq misses
system.cpu7.dcache.StoreCondReq_misses::cpu7.data          691                       # number of StoreCondReq misses
system.cpu7.dcache.StoreCondReq_misses::total          691                       # number of StoreCondReq misses
system.cpu7.dcache.demand_misses::cpu7.data        16794                       # number of demand (read+write) misses
system.cpu7.dcache.demand_misses::total         16794                       # number of demand (read+write) misses
system.cpu7.dcache.overall_misses::cpu7.data        21219                       # number of overall misses
system.cpu7.dcache.overall_misses::total        21219                       # number of overall misses
system.cpu7.dcache.ReadReq_accesses::cpu7.data       584366                       # number of ReadReq accesses(hits+misses)
system.cpu7.dcache.ReadReq_accesses::total       584366                       # number of ReadReq accesses(hits+misses)
system.cpu7.dcache.WriteReq_accesses::cpu7.data       366870                       # number of WriteReq accesses(hits+misses)
system.cpu7.dcache.WriteReq_accesses::total       366870                       # number of WriteReq accesses(hits+misses)
system.cpu7.dcache.SoftPFReq_accesses::cpu7.data        12388                       # number of SoftPFReq accesses(hits+misses)
system.cpu7.dcache.SoftPFReq_accesses::total        12388                       # number of SoftPFReq accesses(hits+misses)
system.cpu7.dcache.LoadLockedReq_accesses::cpu7.data        11849                       # number of LoadLockedReq accesses(hits+misses)
system.cpu7.dcache.LoadLockedReq_accesses::total        11849                       # number of LoadLockedReq accesses(hits+misses)
system.cpu7.dcache.StoreCondReq_accesses::cpu7.data        11738                       # number of StoreCondReq accesses(hits+misses)
system.cpu7.dcache.StoreCondReq_accesses::total        11738                       # number of StoreCondReq accesses(hits+misses)
system.cpu7.dcache.demand_accesses::cpu7.data       951236                       # number of demand (read+write) accesses
system.cpu7.dcache.demand_accesses::total       951236                       # number of demand (read+write) accesses
system.cpu7.dcache.overall_accesses::cpu7.data       963624                       # number of overall (read+write) accesses
system.cpu7.dcache.overall_accesses::total       963624                       # number of overall (read+write) accesses
system.cpu7.dcache.ReadReq_miss_rate::cpu7.data     0.017169                       # miss rate for ReadReq accesses
system.cpu7.dcache.ReadReq_miss_rate::total     0.017169                       # miss rate for ReadReq accesses
system.cpu7.dcache.WriteReq_miss_rate::cpu7.data     0.018429                       # miss rate for WriteReq accesses
system.cpu7.dcache.WriteReq_miss_rate::total     0.018429                       # miss rate for WriteReq accesses
system.cpu7.dcache.SoftPFReq_miss_rate::cpu7.data     0.357201                       # miss rate for SoftPFReq accesses
system.cpu7.dcache.SoftPFReq_miss_rate::total     0.357201                       # miss rate for SoftPFReq accesses
system.cpu7.dcache.LoadLockedReq_miss_rate::cpu7.data     0.012237                       # miss rate for LoadLockedReq accesses
system.cpu7.dcache.LoadLockedReq_miss_rate::total     0.012237                       # miss rate for LoadLockedReq accesses
system.cpu7.dcache.StoreCondReq_miss_rate::cpu7.data     0.058869                       # miss rate for StoreCondReq accesses
system.cpu7.dcache.StoreCondReq_miss_rate::total     0.058869                       # miss rate for StoreCondReq accesses
system.cpu7.dcache.demand_miss_rate::cpu7.data     0.017655                       # miss rate for demand accesses
system.cpu7.dcache.demand_miss_rate::total     0.017655                       # miss rate for demand accesses
system.cpu7.dcache.overall_miss_rate::cpu7.data     0.022020                       # miss rate for overall accesses
system.cpu7.dcache.overall_miss_rate::total     0.022020                       # miss rate for overall accesses
system.cpu7.dcache.blocked_cycles::no_mshrs            0                       # number of cycles access was blocked
system.cpu7.dcache.blocked_cycles::no_targets            0                       # number of cycles access was blocked
system.cpu7.dcache.blocked::no_mshrs                0                       # number of cycles access was blocked
system.cpu7.dcache.blocked::no_targets              0                       # number of cycles access was blocked
system.cpu7.dcache.avg_blocked_cycles::no_mshrs          nan                       # average number of cycles each access was blocked
system.cpu7.dcache.avg_blocked_cycles::no_targets          nan                       # average number of cycles each access was blocked
system.cpu7.dcache.fast_writes                      0                       # number of fast writes performed
system.cpu7.dcache.cache_copies                     0                       # number of cache copies performed
system.cpu7.dcache.writebacks::writebacks         9328                       # number of writebacks
system.cpu7.dcache.writebacks::total             9328                       # number of writebacks
system.cpu7.dcache.no_allocate_misses               0                       # Number of misses that were no-allocate
system.iocache.tags.replacements                  130                       # number of replacements
system.iocache.tags.tagsinuse                      16                       # Cycle average of tags in use
system.iocache.tags.total_refs                      0                       # Total number of references to valid blocks.
system.iocache.tags.sampled_refs                  146                       # Sample count of references to valid blocks.
system.iocache.tags.avg_refs                        0                       # Average number of references to valid blocks.
system.iocache.tags.warmup_cycle                    0                       # Cycle when the warmup percentage was hit.
system.iocache.tags.occ_blocks::realview.ide           16                       # Average occupied blocks per requestor
system.iocache.tags.occ_percent::realview.ide            1                       # Average percentage of cache occupancy
system.iocache.tags.occ_percent::total              1                       # Average percentage of cache occupancy
system.iocache.tags.occ_task_id_blocks::1023           16                       # Occupied blocks per task id
system.iocache.tags.age_task_id_blocks_1023::3           16                       # Occupied blocks per task id
system.iocache.tags.occ_task_id_percent::1023            1                       # Percentage of cache occupancy per task id
system.iocache.tags.tag_accesses                 1170                       # Number of tag accesses
system.iocache.tags.data_accesses                1170                       # Number of data accesses
system.iocache.WriteInvalidateReq_hits::realview.ide          128                       # number of WriteInvalidateReq hits
system.iocache.WriteInvalidateReq_hits::total          128                       # number of WriteInvalidateReq hits
system.iocache.ReadReq_misses::realview.ide            2                       # number of ReadReq misses
system.iocache.ReadReq_misses::total                2                       # number of ReadReq misses
system.iocache.demand_misses::realview.ide            2                       # number of demand (read+write) misses
system.iocache.demand_misses::total                 2                       # number of demand (read+write) misses
system.iocache.overall_misses::realview.ide            2                       # number of overall misses
system.iocache.overall_misses::total                2                       # number of overall misses
system.iocache.ReadReq_accesses::realview.ide            2                       # number of ReadReq accesses(hits+misses)
system.iocache.ReadReq_accesses::total              2                       # number of ReadReq accesses(hits+misses)
system.iocache.WriteInvalidateReq_accesses::realview.ide          128                       # number of WriteInvalidateReq accesses(hits+misses)
system.iocache.WriteInvalidateReq_accesses::total          128                       # number of WriteInvalidateReq accesses(hits+misses)
system.iocache.demand_accesses::realview.ide            2                       # number of demand (read+write) accesses
system.iocache.demand_accesses::total               2                       # number of demand (read+write) accesses
system.iocache.overall_accesses::realview.ide            2                       # number of overall (read+write) accesses
system.iocache.overall_accesses::total              2                       # number of overall (read+write) accesses
system.iocache.ReadReq_miss_rate::realview.ide            1                       # miss rate for ReadReq accesses
system.iocache.ReadReq_miss_rate::total             1                       # miss rate for ReadReq accesses
system.iocache.demand_miss_rate::realview.ide            1                       # miss rate for demand accesses
system.iocache.demand_miss_rate::total              1                       # miss rate for demand accesses
system.iocache.overall_miss_rate::realview.ide            1                       # miss rate for overall accesses
system.iocache.overall_miss_rate::total             1                       # miss rate for overall accesses
system.iocache.blocked_cycles::no_mshrs             0                       # number of cycles access was blocked
system.iocache.blocked_cycles::no_targets            0                       # number of cycles access was blocked
system.iocache.blocked::no_mshrs                    0                       # number of cycles access was blocked
system.iocache.blocked::no_targets                  0                       # number of cycles access was blocked
system.iocache.avg_blocked_cycles::no_mshrs          nan                       # average number of cycles each access was blocked
system.iocache.avg_blocked_cycles::no_targets          nan                       # average number of cycles each access was blocked
system.iocache.fast_writes                        128                       # number of fast writes performed
system.iocache.cache_copies                         0                       # number of cache copies performed
system.iocache.no_allocate_misses                   0                       # Number of misses that were no-allocate

---------- End Simulation Statistics   ----------
