
---------- Begin Simulation Statistics ----------
sim_seconds                                 30.425321                       # Number of seconds simulated
sim_ticks                                30425320976500                       # Number of ticks simulated
final_tick                               35220027000500                       # Number of ticks from beginning of simulation (restored from checkpoints and never reset)
sim_freq                                 1000000000000                       # Frequency of simulated ticks
host_inst_rate                                 290268                       # Simulator instruction rate (inst/s)
host_op_rate                                   535780                       # Simulator op (including micro ops) rate (op/s)
host_tick_rate                            36039763664                       # Simulator tick rate (ticks/s)
host_mem_usage                                 880788                       # Number of bytes of host memory used
host_seconds                                   844.22                       # Real time elapsed on the host
sim_insts                                   245048632                       # Number of instructions simulated
sim_ops                                     452313537                       # Number of ops (including micro ops) simulated
system.voltage_domain.voltage                       1                       # Voltage in Volts
system.clk_domain.clock                          1000                       # Clock period in ticks
system.mem_ctrls.bytes_read::cpu0.dtb.walker         2624                       # Number of bytes read from this memory
system.mem_ctrls.bytes_read::cpu0.itb.walker         1152                       # Number of bytes read from this memory
system.mem_ctrls.bytes_read::cpu0.inst         121920                       # Number of bytes read from this memory
system.mem_ctrls.bytes_read::cpu0.data         192896                       # Number of bytes read from this memory
system.mem_ctrls.bytes_read::cpu1.dtb.walker           64                       # Number of bytes read from this memory
system.mem_ctrls.bytes_read::cpu1.itb.walker          256                       # Number of bytes read from this memory
system.mem_ctrls.bytes_read::cpu1.inst          47168                       # Number of bytes read from this memory
system.mem_ctrls.bytes_read::cpu1.data          60992                       # Number of bytes read from this memory
system.mem_ctrls.bytes_read::cpu2.dtb.walker           64                       # Number of bytes read from this memory
system.mem_ctrls.bytes_read::cpu2.inst           3584                       # Number of bytes read from this memory
system.mem_ctrls.bytes_read::cpu2.data          46080                       # Number of bytes read from this memory
system.mem_ctrls.bytes_read::cpu3.dtb.walker          320                       # Number of bytes read from this memory
system.mem_ctrls.bytes_read::cpu3.inst          16128                       # Number of bytes read from this memory
system.mem_ctrls.bytes_read::cpu3.data         134592                       # Number of bytes read from this memory
system.mem_ctrls.bytes_read::total             627840                       # Number of bytes read from this memory
system.mem_ctrls.bytes_inst_read::cpu0.inst       121920                       # Number of instructions bytes read from this memory
system.mem_ctrls.bytes_inst_read::cpu1.inst        47168                       # Number of instructions bytes read from this memory
system.mem_ctrls.bytes_inst_read::cpu2.inst         3584                       # Number of instructions bytes read from this memory
system.mem_ctrls.bytes_inst_read::cpu3.inst        16128                       # Number of instructions bytes read from this memory
system.mem_ctrls.bytes_inst_read::total        188800                       # Number of instructions bytes read from this memory
system.mem_ctrls.bytes_written::writebacks         2688                       # Number of bytes written to this memory
system.mem_ctrls.bytes_written::total            2688                       # Number of bytes written to this memory
system.mem_ctrls.num_reads::cpu0.dtb.walker           41                       # Number of read requests responded to by this memory
system.mem_ctrls.num_reads::cpu0.itb.walker           18                       # Number of read requests responded to by this memory
system.mem_ctrls.num_reads::cpu0.inst            1905                       # Number of read requests responded to by this memory
system.mem_ctrls.num_reads::cpu0.data            3014                       # Number of read requests responded to by this memory
system.mem_ctrls.num_reads::cpu1.dtb.walker            1                       # Number of read requests responded to by this memory
system.mem_ctrls.num_reads::cpu1.itb.walker            4                       # Number of read requests responded to by this memory
system.mem_ctrls.num_reads::cpu1.inst             737                       # Number of read requests responded to by this memory
system.mem_ctrls.num_reads::cpu1.data             953                       # Number of read requests responded to by this memory
system.mem_ctrls.num_reads::cpu2.dtb.walker            1                       # Number of read requests responded to by this memory
system.mem_ctrls.num_reads::cpu2.inst              56                       # Number of read requests responded to by this memory
system.mem_ctrls.num_reads::cpu2.data             720                       # Number of read requests responded to by this memory
system.mem_ctrls.num_reads::cpu3.dtb.walker            5                       # Number of read requests responded to by this memory
system.mem_ctrls.num_reads::cpu3.inst             252                       # Number of read requests responded to by this memory
system.mem_ctrls.num_reads::cpu3.data            2103                       # Number of read requests responded to by this memory
system.mem_ctrls.num_reads::total                9810                       # Number of read requests responded to by this memory
system.mem_ctrls.num_writes::writebacks            42                       # Number of write requests responded to by this memory
system.mem_ctrls.num_writes::total                 42                       # Number of write requests responded to by this memory
system.mem_ctrls.bw_read::cpu0.dtb.walker           86                       # Total read bandwidth from this memory (bytes/s)
system.mem_ctrls.bw_read::cpu0.itb.walker           38                       # Total read bandwidth from this memory (bytes/s)
system.mem_ctrls.bw_read::cpu0.inst              4007                       # Total read bandwidth from this memory (bytes/s)
system.mem_ctrls.bw_read::cpu0.data              6340                       # Total read bandwidth from this memory (bytes/s)
system.mem_ctrls.bw_read::cpu1.dtb.walker            2                       # Total read bandwidth from this memory (bytes/s)
system.mem_ctrls.bw_read::cpu1.itb.walker            8                       # Total read bandwidth from this memory (bytes/s)
system.mem_ctrls.bw_read::cpu1.inst              1550                       # Total read bandwidth from this memory (bytes/s)
system.mem_ctrls.bw_read::cpu1.data              2005                       # Total read bandwidth from this memory (bytes/s)
system.mem_ctrls.bw_read::cpu2.dtb.walker            2                       # Total read bandwidth from this memory (bytes/s)
system.mem_ctrls.bw_read::cpu2.inst               118                       # Total read bandwidth from this memory (bytes/s)
system.mem_ctrls.bw_read::cpu2.data              1515                       # Total read bandwidth from this memory (bytes/s)
system.mem_ctrls.bw_read::cpu3.dtb.walker           11                       # Total read bandwidth from this memory (bytes/s)
system.mem_ctrls.bw_read::cpu3.inst               530                       # Total read bandwidth from this memory (bytes/s)
system.mem_ctrls.bw_read::cpu3.data              4424                       # Total read bandwidth from this memory (bytes/s)
system.mem_ctrls.bw_read::total                 20635                       # Total read bandwidth from this memory (bytes/s)
system.mem_ctrls.bw_inst_read::cpu0.inst         4007                       # Instruction read bandwidth from this memory (bytes/s)
system.mem_ctrls.bw_inst_read::cpu1.inst         1550                       # Instruction read bandwidth from this memory (bytes/s)
system.mem_ctrls.bw_inst_read::cpu2.inst          118                       # Instruction read bandwidth from this memory (bytes/s)
system.mem_ctrls.bw_inst_read::cpu3.inst          530                       # Instruction read bandwidth from this memory (bytes/s)
system.mem_ctrls.bw_inst_read::total             6205                       # Instruction read bandwidth from this memory (bytes/s)
system.mem_ctrls.bw_write::writebacks              88                       # Write bandwidth from this memory (bytes/s)
system.mem_ctrls.bw_write::total                   88                       # Write bandwidth from this memory (bytes/s)
system.mem_ctrls.bw_total::writebacks              88                       # Total bandwidth to/from this memory (bytes/s)
system.mem_ctrls.bw_total::cpu0.dtb.walker           86                       # Total bandwidth to/from this memory (bytes/s)
system.mem_ctrls.bw_total::cpu0.itb.walker           38                       # Total bandwidth to/from this memory (bytes/s)
system.mem_ctrls.bw_total::cpu0.inst             4007                       # Total bandwidth to/from this memory (bytes/s)
system.mem_ctrls.bw_total::cpu0.data             6340                       # Total bandwidth to/from this memory (bytes/s)
system.mem_ctrls.bw_total::cpu1.dtb.walker            2                       # Total bandwidth to/from this memory (bytes/s)
system.mem_ctrls.bw_total::cpu1.itb.walker            8                       # Total bandwidth to/from this memory (bytes/s)
system.mem_ctrls.bw_total::cpu1.inst             1550                       # Total bandwidth to/from this memory (bytes/s)
system.mem_ctrls.bw_total::cpu1.data             2005                       # Total bandwidth to/from this memory (bytes/s)
system.mem_ctrls.bw_total::cpu2.dtb.walker            2                       # Total bandwidth to/from this memory (bytes/s)
system.mem_ctrls.bw_total::cpu2.inst              118                       # Total bandwidth to/from this memory (bytes/s)
system.mem_ctrls.bw_total::cpu2.data             1515                       # Total bandwidth to/from this memory (bytes/s)
system.mem_ctrls.bw_total::cpu3.dtb.walker           11                       # Total bandwidth to/from this memory (bytes/s)
system.mem_ctrls.bw_total::cpu3.inst              530                       # Total bandwidth to/from this memory (bytes/s)
system.mem_ctrls.bw_total::cpu3.data             4424                       # Total bandwidth to/from this memory (bytes/s)
system.mem_ctrls.bw_total::total                20724                       # Total bandwidth to/from this memory (bytes/s)
system.mem_ctrls.readReqs                        9810                       # Number of read requests accepted
system.mem_ctrls.writeReqs                         42                       # Number of write requests accepted
system.mem_ctrls.readBursts                      9810                       # Number of DRAM read bursts, including those serviced by the write queue
system.mem_ctrls.writeBursts                       42                       # Number of DRAM write bursts, including those merged in the write queue
system.mem_ctrls.bytesReadDRAM                 626688                       # Total number of bytes read from DRAM
system.mem_ctrls.bytesReadWrQ                    1152                       # Total number of bytes read from write queue
system.mem_ctrls.bytesWritten                       0                       # Total number of bytes written to DRAM
system.mem_ctrls.bytesReadSys                  627840                       # Total read bytes from the system interface side
system.mem_ctrls.bytesWrittenSys                 2688                       # Total written bytes from the system interface side
system.mem_ctrls.servicedByWrQ                     18                       # Number of DRAM read bursts serviced by the write queue
system.mem_ctrls.mergedWrBursts                    11                       # Number of DRAM write bursts merged with an existing one
system.mem_ctrls.neitherReadNorWriteReqs       175064                       # Number of requests that are neither read nor write
system.mem_ctrls.perBankRdBursts::0               784                       # Per bank write bursts
system.mem_ctrls.perBankRdBursts::1               634                       # Per bank write bursts
system.mem_ctrls.perBankRdBursts::2               557                       # Per bank write bursts
system.mem_ctrls.perBankRdBursts::3               509                       # Per bank write bursts
system.mem_ctrls.perBankRdBursts::4               649                       # Per bank write bursts
system.mem_ctrls.perBankRdBursts::5               762                       # Per bank write bursts
system.mem_ctrls.perBankRdBursts::6               570                       # Per bank write bursts
system.mem_ctrls.perBankRdBursts::7               540                       # Per bank write bursts
system.mem_ctrls.perBankRdBursts::8               586                       # Per bank write bursts
system.mem_ctrls.perBankRdBursts::9               624                       # Per bank write bursts
system.mem_ctrls.perBankRdBursts::10              898                       # Per bank write bursts
system.mem_ctrls.perBankRdBursts::11              628                       # Per bank write bursts
system.mem_ctrls.perBankRdBursts::12              537                       # Per bank write bursts
system.mem_ctrls.perBankRdBursts::13              506                       # Per bank write bursts
system.mem_ctrls.perBankRdBursts::14              468                       # Per bank write bursts
system.mem_ctrls.perBankRdBursts::15              540                       # Per bank write bursts
system.mem_ctrls.perBankWrBursts::0                 0                       # Per bank write bursts
system.mem_ctrls.perBankWrBursts::1                 0                       # Per bank write bursts
system.mem_ctrls.perBankWrBursts::2                 0                       # Per bank write bursts
system.mem_ctrls.perBankWrBursts::3                 0                       # Per bank write bursts
system.mem_ctrls.perBankWrBursts::4                 0                       # Per bank write bursts
system.mem_ctrls.perBankWrBursts::5                 0                       # Per bank write bursts
system.mem_ctrls.perBankWrBursts::6                 0                       # Per bank write bursts
system.mem_ctrls.perBankWrBursts::7                 0                       # Per bank write bursts
system.mem_ctrls.perBankWrBursts::8                 0                       # Per bank write bursts
system.mem_ctrls.perBankWrBursts::9                 0                       # Per bank write bursts
system.mem_ctrls.perBankWrBursts::10                0                       # Per bank write bursts
system.mem_ctrls.perBankWrBursts::11                0                       # Per bank write bursts
system.mem_ctrls.perBankWrBursts::12                0                       # Per bank write bursts
system.mem_ctrls.perBankWrBursts::13                0                       # Per bank write bursts
system.mem_ctrls.perBankWrBursts::14                0                       # Per bank write bursts
system.mem_ctrls.perBankWrBursts::15                0                       # Per bank write bursts
system.mem_ctrls.numRdRetry                         0                       # Number of times read queue was full causing retry
system.mem_ctrls.numWrRetry                         0                       # Number of times write queue was full causing retry
system.mem_ctrls.totGap                  30375471676000                       # Total gap between requests
system.mem_ctrls.readPktSize::0                     0                       # Read request sizes (log2)
system.mem_ctrls.readPktSize::1                     0                       # Read request sizes (log2)
system.mem_ctrls.readPktSize::2                     0                       # Read request sizes (log2)
system.mem_ctrls.readPktSize::3                     0                       # Read request sizes (log2)
system.mem_ctrls.readPktSize::4                     0                       # Read request sizes (log2)
system.mem_ctrls.readPktSize::5                     0                       # Read request sizes (log2)
system.mem_ctrls.readPktSize::6                  9810                       # Read request sizes (log2)
system.mem_ctrls.writePktSize::0                    0                       # Write request sizes (log2)
system.mem_ctrls.writePktSize::1                    0                       # Write request sizes (log2)
system.mem_ctrls.writePktSize::2                    0                       # Write request sizes (log2)
system.mem_ctrls.writePktSize::3                    0                       # Write request sizes (log2)
system.mem_ctrls.writePktSize::4                    0                       # Write request sizes (log2)
system.mem_ctrls.writePktSize::5                    0                       # Write request sizes (log2)
system.mem_ctrls.writePktSize::6                   42                       # Write request sizes (log2)
system.mem_ctrls.rdQLenPdf::0                    6083                       # What read queue length does an incoming req see
system.mem_ctrls.rdQLenPdf::1                    2573                       # What read queue length does an incoming req see
system.mem_ctrls.rdQLenPdf::2                     883                       # What read queue length does an incoming req see
system.mem_ctrls.rdQLenPdf::3                     220                       # What read queue length does an incoming req see
system.mem_ctrls.rdQLenPdf::4                      26                       # What read queue length does an incoming req see
system.mem_ctrls.rdQLenPdf::5                       6                       # What read queue length does an incoming req see
system.mem_ctrls.rdQLenPdf::6                       1                       # What read queue length does an incoming req see
system.mem_ctrls.rdQLenPdf::7                       0                       # What read queue length does an incoming req see
system.mem_ctrls.rdQLenPdf::8                       0                       # What read queue length does an incoming req see
system.mem_ctrls.rdQLenPdf::9                       0                       # What read queue length does an incoming req see
system.mem_ctrls.rdQLenPdf::10                      0                       # What read queue length does an incoming req see
system.mem_ctrls.rdQLenPdf::11                      0                       # What read queue length does an incoming req see
system.mem_ctrls.rdQLenPdf::12                      0                       # What read queue length does an incoming req see
system.mem_ctrls.rdQLenPdf::13                      0                       # What read queue length does an incoming req see
system.mem_ctrls.rdQLenPdf::14                      0                       # What read queue length does an incoming req see
system.mem_ctrls.rdQLenPdf::15                      0                       # What read queue length does an incoming req see
system.mem_ctrls.rdQLenPdf::16                      0                       # What read queue length does an incoming req see
system.mem_ctrls.rdQLenPdf::17                      0                       # What read queue length does an incoming req see
system.mem_ctrls.rdQLenPdf::18                      0                       # What read queue length does an incoming req see
system.mem_ctrls.rdQLenPdf::19                      0                       # What read queue length does an incoming req see
system.mem_ctrls.rdQLenPdf::20                      0                       # What read queue length does an incoming req see
system.mem_ctrls.rdQLenPdf::21                      0                       # What read queue length does an incoming req see
system.mem_ctrls.rdQLenPdf::22                      0                       # What read queue length does an incoming req see
system.mem_ctrls.rdQLenPdf::23                      0                       # What read queue length does an incoming req see
system.mem_ctrls.rdQLenPdf::24                      0                       # What read queue length does an incoming req see
system.mem_ctrls.rdQLenPdf::25                      0                       # What read queue length does an incoming req see
system.mem_ctrls.rdQLenPdf::26                      0                       # What read queue length does an incoming req see
system.mem_ctrls.rdQLenPdf::27                      0                       # What read queue length does an incoming req see
system.mem_ctrls.rdQLenPdf::28                      0                       # What read queue length does an incoming req see
system.mem_ctrls.rdQLenPdf::29                      0                       # What read queue length does an incoming req see
system.mem_ctrls.rdQLenPdf::30                      0                       # What read queue length does an incoming req see
system.mem_ctrls.rdQLenPdf::31                      0                       # What read queue length does an incoming req see
system.mem_ctrls.wrQLenPdf::0                       1                       # What write queue length does an incoming req see
system.mem_ctrls.wrQLenPdf::1                       1                       # What write queue length does an incoming req see
system.mem_ctrls.wrQLenPdf::2                       1                       # What write queue length does an incoming req see
system.mem_ctrls.wrQLenPdf::3                       1                       # What write queue length does an incoming req see
system.mem_ctrls.wrQLenPdf::4                       1                       # What write queue length does an incoming req see
system.mem_ctrls.wrQLenPdf::5                       1                       # What write queue length does an incoming req see
system.mem_ctrls.wrQLenPdf::6                       1                       # What write queue length does an incoming req see
system.mem_ctrls.wrQLenPdf::7                       1                       # What write queue length does an incoming req see
system.mem_ctrls.wrQLenPdf::8                       1                       # What write queue length does an incoming req see
system.mem_ctrls.wrQLenPdf::9                       1                       # What write queue length does an incoming req see
system.mem_ctrls.wrQLenPdf::10                      1                       # What write queue length does an incoming req see
system.mem_ctrls.wrQLenPdf::11                      1                       # What write queue length does an incoming req see
system.mem_ctrls.wrQLenPdf::12                      1                       # What write queue length does an incoming req see
system.mem_ctrls.wrQLenPdf::13                      1                       # What write queue length does an incoming req see
system.mem_ctrls.wrQLenPdf::14                      1                       # What write queue length does an incoming req see
system.mem_ctrls.wrQLenPdf::15                      1                       # What write queue length does an incoming req see
system.mem_ctrls.wrQLenPdf::16                      1                       # What write queue length does an incoming req see
system.mem_ctrls.wrQLenPdf::17                      1                       # What write queue length does an incoming req see
system.mem_ctrls.wrQLenPdf::18                      1                       # What write queue length does an incoming req see
system.mem_ctrls.wrQLenPdf::19                      1                       # What write queue length does an incoming req see
system.mem_ctrls.wrQLenPdf::20                      1                       # What write queue length does an incoming req see
system.mem_ctrls.wrQLenPdf::21                      1                       # What write queue length does an incoming req see
system.mem_ctrls.wrQLenPdf::22                      1                       # What write queue length does an incoming req see
system.mem_ctrls.wrQLenPdf::23                      1                       # What write queue length does an incoming req see
system.mem_ctrls.wrQLenPdf::24                      1                       # What write queue length does an incoming req see
system.mem_ctrls.wrQLenPdf::25                      1                       # What write queue length does an incoming req see
system.mem_ctrls.wrQLenPdf::26                      1                       # What write queue length does an incoming req see
system.mem_ctrls.wrQLenPdf::27                      1                       # What write queue length does an incoming req see
system.mem_ctrls.wrQLenPdf::28                      1                       # What write queue length does an incoming req see
system.mem_ctrls.wrQLenPdf::29                      1                       # What write queue length does an incoming req see
system.mem_ctrls.wrQLenPdf::30                      1                       # What write queue length does an incoming req see
system.mem_ctrls.wrQLenPdf::31                      0                       # What write queue length does an incoming req see
system.mem_ctrls.wrQLenPdf::32                      0                       # What write queue length does an incoming req see
system.mem_ctrls.wrQLenPdf::33                      0                       # What write queue length does an incoming req see
system.mem_ctrls.wrQLenPdf::34                      0                       # What write queue length does an incoming req see
system.mem_ctrls.wrQLenPdf::35                      0                       # What write queue length does an incoming req see
system.mem_ctrls.wrQLenPdf::36                      0                       # What write queue length does an incoming req see
system.mem_ctrls.wrQLenPdf::37                      0                       # What write queue length does an incoming req see
system.mem_ctrls.wrQLenPdf::38                      0                       # What write queue length does an incoming req see
system.mem_ctrls.wrQLenPdf::39                      0                       # What write queue length does an incoming req see
system.mem_ctrls.wrQLenPdf::40                      0                       # What write queue length does an incoming req see
system.mem_ctrls.wrQLenPdf::41                      0                       # What write queue length does an incoming req see
system.mem_ctrls.wrQLenPdf::42                      0                       # What write queue length does an incoming req see
system.mem_ctrls.wrQLenPdf::43                      0                       # What write queue length does an incoming req see
system.mem_ctrls.wrQLenPdf::44                      0                       # What write queue length does an incoming req see
system.mem_ctrls.wrQLenPdf::45                      0                       # What write queue length does an incoming req see
system.mem_ctrls.wrQLenPdf::46                      0                       # What write queue length does an incoming req see
system.mem_ctrls.wrQLenPdf::47                      0                       # What write queue length does an incoming req see
system.mem_ctrls.wrQLenPdf::48                      0                       # What write queue length does an incoming req see
system.mem_ctrls.wrQLenPdf::49                      0                       # What write queue length does an incoming req see
system.mem_ctrls.wrQLenPdf::50                      0                       # What write queue length does an incoming req see
system.mem_ctrls.wrQLenPdf::51                      0                       # What write queue length does an incoming req see
system.mem_ctrls.wrQLenPdf::52                      0                       # What write queue length does an incoming req see
system.mem_ctrls.wrQLenPdf::53                      0                       # What write queue length does an incoming req see
system.mem_ctrls.wrQLenPdf::54                      0                       # What write queue length does an incoming req see
system.mem_ctrls.wrQLenPdf::55                      0                       # What write queue length does an incoming req see
system.mem_ctrls.wrQLenPdf::56                      0                       # What write queue length does an incoming req see
system.mem_ctrls.wrQLenPdf::57                      0                       # What write queue length does an incoming req see
system.mem_ctrls.wrQLenPdf::58                      0                       # What write queue length does an incoming req see
system.mem_ctrls.wrQLenPdf::59                      0                       # What write queue length does an incoming req see
system.mem_ctrls.wrQLenPdf::60                      0                       # What write queue length does an incoming req see
system.mem_ctrls.wrQLenPdf::61                      0                       # What write queue length does an incoming req see
system.mem_ctrls.wrQLenPdf::62                      0                       # What write queue length does an incoming req see
system.mem_ctrls.wrQLenPdf::63                      0                       # What write queue length does an incoming req see
system.mem_ctrls.bytesPerActivate::samples         3857                       # Bytes accessed per row activation
system.mem_ctrls.bytesPerActivate::mean    162.480684                       # Bytes accessed per row activation
system.mem_ctrls.bytesPerActivate::gmean   107.286856                       # Bytes accessed per row activation
system.mem_ctrls.bytesPerActivate::stdev   209.565650                       # Bytes accessed per row activation
system.mem_ctrls.bytesPerActivate::0-127         2346     60.82%     60.82% # Bytes accessed per row activation
system.mem_ctrls.bytesPerActivate::128-255          862     22.35%     83.17% # Bytes accessed per row activation
system.mem_ctrls.bytesPerActivate::256-383          249      6.46%     89.63% # Bytes accessed per row activation
system.mem_ctrls.bytesPerActivate::384-511          120      3.11%     92.74% # Bytes accessed per row activation
system.mem_ctrls.bytesPerActivate::512-639           67      1.74%     94.48% # Bytes accessed per row activation
system.mem_ctrls.bytesPerActivate::640-767           38      0.99%     95.46% # Bytes accessed per row activation
system.mem_ctrls.bytesPerActivate::768-895           33      0.86%     96.32% # Bytes accessed per row activation
system.mem_ctrls.bytesPerActivate::896-1023           26      0.67%     96.99% # Bytes accessed per row activation
system.mem_ctrls.bytesPerActivate::1024-1151          116      3.01%    100.00% # Bytes accessed per row activation
system.mem_ctrls.bytesPerActivate::total         3857                       # Bytes accessed per row activation
system.mem_ctrls.totQLat                    152802500                       # Total ticks spent queuing
system.mem_ctrls.totMemAccLat               336402500                       # Total ticks spent from burst creation until serviced by the DRAM
system.mem_ctrls.totBusLat                   48960000                       # Total ticks spent in databus transfers
system.mem_ctrls.avgQLat                     15604.83                       # Average queueing delay per DRAM burst
system.mem_ctrls.avgBusLat                    5000.00                       # Average bus latency per DRAM burst
system.mem_ctrls.avgMemAccLat                34354.83                       # Average memory access latency per DRAM burst
system.mem_ctrls.avgRdBW                         0.02                       # Average DRAM read bandwidth in MiByte/s
system.mem_ctrls.avgWrBW                         0.00                       # Average achieved write bandwidth in MiByte/s
system.mem_ctrls.avgRdBWSys                      0.02                       # Average system read bandwidth in MiByte/s
system.mem_ctrls.avgWrBWSys                      0.00                       # Average system write bandwidth in MiByte/s
system.mem_ctrls.peakBW                      12800.00                       # Theoretical peak bandwidth in MiByte/s
system.mem_ctrls.busUtil                         0.00                       # Data bus utilization in percentage
system.mem_ctrls.busUtilRead                     0.00                       # Data bus utilization in percentage for reads
system.mem_ctrls.busUtilWrite                    0.00                       # Data bus utilization in percentage for writes
system.mem_ctrls.avgRdQLen                       1.03                       # Average read queue length when enqueuing
system.mem_ctrls.avgWrQLen                      23.12                       # Average write queue length when enqueuing
system.mem_ctrls.readRowHits                     5935                       # Number of row buffer hits during reads
system.mem_ctrls.writeRowHits                       0                       # Number of row buffer hits during writes
system.mem_ctrls.readRowHitRate                 60.61                       # Row buffer hit rate for reads
system.mem_ctrls.writeRowHitRate                 0.00                       # Row buffer hit rate for writes
system.mem_ctrls.avgGap                  3083178205.03                       # Average gap between requests
system.mem_ctrls.pageHitRate                    60.42                       # Row buffer hit rate, read and write combined
system.mem_ctrls.memoryStateTime::IDLE   29407440606250                       # Time in different power states
system.mem_ctrls.memoryStateTime::REF    1015968200000                       # Time in different power states
system.mem_ctrls.memoryStateTime::PRE_PDN            0                       # Time in different power states
system.mem_ctrls.memoryStateTime::ACT      1908366250                       # Time in different power states
system.mem_ctrls.memoryStateTime::ACT_PDN            0                       # Time in different power states
system.mem_ctrls.actEnergy::0                14976360                       # Energy for activate commands per rank (pJ)
system.mem_ctrls.actEnergy::1                14182560                       # Energy for activate commands per rank (pJ)
system.mem_ctrls.preEnergy::0                 8171625                       # Energy for precharge commands per rank (pJ)
system.mem_ctrls.preEnergy::1                 7738500                       # Energy for precharge commands per rank (pJ)
system.mem_ctrls.readEnergy::0               39039000                       # Energy for read commands per rank (pJ)
system.mem_ctrls.readEnergy::1               37338600                       # Energy for read commands per rank (pJ)
system.mem_ctrls.writeEnergy::0                     0                       # Energy for write commands per rank (pJ)
system.mem_ctrls.writeEnergy::1                     0                       # Energy for write commands per rank (pJ)
system.mem_ctrls.refreshEnergy::0        1987233799200                       # Energy for refresh commands per rank (pJ)
system.mem_ctrls.refreshEnergy::1        1987233799200                       # Energy for refresh commands per rank (pJ)
system.mem_ctrls.actBackEnergy::0        659186178885                       # Energy for active background per rank (pJ)
system.mem_ctrls.actBackEnergy::1        658978358310                       # Energy for active background per rank (pJ)
system.mem_ctrls.preBackEnergy::0        17676956805000                       # Energy for precharge background per rank (pJ)
system.mem_ctrls.preBackEnergy::1        17677139103750                       # Energy for precharge background per rank (pJ)
system.mem_ctrls.totalEnergy::0          20323438970070                       # Total energy per rank (pJ)
system.mem_ctrls.totalEnergy::1          20323410520920                       # Total energy per rank (pJ)
system.mem_ctrls.averagePower::0           667.977884                       # Core power per rank (mW)
system.mem_ctrls.averagePower::1           667.976949                       # Core power per rank (mW)
system.cpu_voltage_domain.voltage                   1                       # Voltage in Volts
system.cpu_clk_domain.clock                       500                       # Clock period in ticks
system.tol2bus.trans_dist::ReadReq             880611                       # Transaction distribution
system.tol2bus.trans_dist::ReadResp            880611                       # Transaction distribution
system.tol2bus.trans_dist::WriteReq             22828                       # Transaction distribution
system.tol2bus.trans_dist::WriteResp            22828                       # Transaction distribution
system.tol2bus.trans_dist::Writeback            10832                       # Transaction distribution
system.tol2bus.trans_dist::UpgradeReq          184076                       # Transaction distribution
system.tol2bus.trans_dist::UpgradeResp         184076                       # Transaction distribution
system.tol2bus.trans_dist::ReadExReq            19072                       # Transaction distribution
system.tol2bus.trans_dist::ReadExResp           19072                       # Transaction distribution
system.tol2bus.pkt_count_system.cpu0.icache.mem_side::system.l2.cpu_side       251350                       # Packet count per connected master and slave (bytes)
system.tol2bus.pkt_count_system.cpu0.dcache.mem_side::system.l2.cpu_side       346730                       # Packet count per connected master and slave (bytes)
system.tol2bus.pkt_count_system.cpu0.itb_walker_cache.mem_side::system.l2.cpu_side         1308                       # Packet count per connected master and slave (bytes)
system.tol2bus.pkt_count_system.cpu0.dtb_walker_cache.mem_side::system.l2.cpu_side       254143                       # Packet count per connected master and slave (bytes)
system.tol2bus.pkt_count_system.cpu1.icache.mem_side::system.l2.cpu_side         2906                       # Packet count per connected master and slave (bytes)
system.tol2bus.pkt_count_system.cpu1.dcache.mem_side::system.l2.cpu_side         2969                       # Packet count per connected master and slave (bytes)
system.tol2bus.pkt_count_system.cpu1.itb_walker_cache.mem_side::system.l2.cpu_side          960                       # Packet count per connected master and slave (bytes)
system.tol2bus.pkt_count_system.cpu1.dtb_walker_cache.mem_side::system.l2.cpu_side         1570                       # Packet count per connected master and slave (bytes)
system.tol2bus.pkt_count_system.cpu2.icache.mem_side::system.l2.cpu_side       224270                       # Packet count per connected master and slave (bytes)
system.tol2bus.pkt_count_system.cpu2.dcache.mem_side::system.l2.cpu_side       263945                       # Packet count per connected master and slave (bytes)
system.tol2bus.pkt_count_system.cpu2.itb_walker_cache.mem_side::system.l2.cpu_side           26                       # Packet count per connected master and slave (bytes)
system.tol2bus.pkt_count_system.cpu2.dtb_walker_cache.mem_side::system.l2.cpu_side          390                       # Packet count per connected master and slave (bytes)
system.tol2bus.pkt_count_system.cpu3.icache.mem_side::system.l2.cpu_side       226530                       # Packet count per connected master and slave (bytes)
system.tol2bus.pkt_count_system.cpu3.dcache.mem_side::system.l2.cpu_side       277028                       # Packet count per connected master and slave (bytes)
system.tol2bus.pkt_count_system.cpu3.itb_walker_cache.mem_side::system.l2.cpu_side            2                       # Packet count per connected master and slave (bytes)
system.tol2bus.pkt_count_system.cpu3.dtb_walker_cache.mem_side::system.l2.cpu_side          328                       # Packet count per connected master and slave (bytes)
system.tol2bus.pkt_count::total               1854455                       # Packet count per connected master and slave (bytes)
system.tol2bus.pkt_size_system.cpu0.icache.mem_side::system.l2.cpu_side      8043200                       # Cumulative packet size per connected master and slave (bytes)
system.tol2bus.pkt_size_system.cpu0.dcache.mem_side::system.l2.cpu_side      1952320                       # Cumulative packet size per connected master and slave (bytes)
system.tol2bus.pkt_size_system.cpu0.itb_walker_cache.mem_side::system.l2.cpu_side        41664                       # Cumulative packet size per connected master and slave (bytes)
system.tol2bus.pkt_size_system.cpu0.dtb_walker_cache.mem_side::system.l2.cpu_side      8132096                       # Cumulative packet size per connected master and slave (bytes)
system.tol2bus.pkt_size_system.cpu1.icache.mem_side::system.l2.cpu_side        92992                       # Cumulative packet size per connected master and slave (bytes)
system.tol2bus.pkt_size_system.cpu1.dcache.mem_side::system.l2.cpu_side        95126                       # Cumulative packet size per connected master and slave (bytes)
system.tol2bus.pkt_size_system.cpu1.itb_walker_cache.mem_side::system.l2.cpu_side        25216                       # Cumulative packet size per connected master and slave (bytes)
system.tol2bus.pkt_size_system.cpu1.dtb_walker_cache.mem_side::system.l2.cpu_side        46016                       # Cumulative packet size per connected master and slave (bytes)
system.tol2bus.pkt_size_system.cpu2.icache.mem_side::system.l2.cpu_side      7176640                       # Cumulative packet size per connected master and slave (bytes)
system.tol2bus.pkt_size_system.cpu2.dcache.mem_side::system.l2.cpu_side      1213476                       # Cumulative packet size per connected master and slave (bytes)
system.tol2bus.pkt_size_system.cpu2.itb_walker_cache.mem_side::system.l2.cpu_side          832                       # Cumulative packet size per connected master and slave (bytes)
system.tol2bus.pkt_size_system.cpu2.dtb_walker_cache.mem_side::system.l2.cpu_side        12480                       # Cumulative packet size per connected master and slave (bytes)
system.tol2bus.pkt_size_system.cpu3.icache.mem_side::system.l2.cpu_side      7248960                       # Cumulative packet size per connected master and slave (bytes)
system.tol2bus.pkt_size_system.cpu3.dcache.mem_side::system.l2.cpu_side      1175520                       # Cumulative packet size per connected master and slave (bytes)
system.tol2bus.pkt_size_system.cpu3.itb_walker_cache.mem_side::system.l2.cpu_side           64                       # Cumulative packet size per connected master and slave (bytes)
system.tol2bus.pkt_size_system.cpu3.dtb_walker_cache.mem_side::system.l2.cpu_side        10496                       # Cumulative packet size per connected master and slave (bytes)
system.tol2bus.pkt_size::total               35267098                       # Cumulative packet size per connected master and slave (bytes)
system.tol2bus.snoops                          369551                       # Total snoops (count)
system.tol2bus.snoop_fanout::samples          1094586                       # Request fanout histogram
system.tol2bus.snoop_fanout::mean                  15                       # Request fanout histogram
system.tol2bus.snoop_fanout::stdev                  0                       # Request fanout histogram
system.tol2bus.snoop_fanout::underflows             0      0.00%      0.00% # Request fanout histogram
system.tol2bus.snoop_fanout::0                      0      0.00%      0.00% # Request fanout histogram
system.tol2bus.snoop_fanout::1                      0      0.00%      0.00% # Request fanout histogram
system.tol2bus.snoop_fanout::2                      0      0.00%      0.00% # Request fanout histogram
system.tol2bus.snoop_fanout::3                      0      0.00%      0.00% # Request fanout histogram
system.tol2bus.snoop_fanout::4                      0      0.00%      0.00% # Request fanout histogram
system.tol2bus.snoop_fanout::5                      0      0.00%      0.00% # Request fanout histogram
system.tol2bus.snoop_fanout::6                      0      0.00%      0.00% # Request fanout histogram
system.tol2bus.snoop_fanout::7                      0      0.00%      0.00% # Request fanout histogram
system.tol2bus.snoop_fanout::8                      0      0.00%      0.00% # Request fanout histogram
system.tol2bus.snoop_fanout::9                      0      0.00%      0.00% # Request fanout histogram
system.tol2bus.snoop_fanout::10                     0      0.00%      0.00% # Request fanout histogram
system.tol2bus.snoop_fanout::11                     0      0.00%      0.00% # Request fanout histogram
system.tol2bus.snoop_fanout::12                     0      0.00%      0.00% # Request fanout histogram
system.tol2bus.snoop_fanout::13                     0      0.00%      0.00% # Request fanout histogram
system.tol2bus.snoop_fanout::14                     0      0.00%      0.00% # Request fanout histogram
system.tol2bus.snoop_fanout::15               1094586    100.00%    100.00% # Request fanout histogram
system.tol2bus.snoop_fanout::16                     0      0.00%    100.00% # Request fanout histogram
system.tol2bus.snoop_fanout::overflows              0      0.00%    100.00% # Request fanout histogram
system.tol2bus.snoop_fanout::min_value             15                       # Request fanout histogram
system.tol2bus.snoop_fanout::max_value             15                       # Request fanout histogram
system.tol2bus.snoop_fanout::total            1094586                       # Request fanout histogram
system.tol2bus.reqLayer0.occupancy          580958993                       # Layer occupancy (ticks)
system.tol2bus.reqLayer0.utilization              0.0                       # Layer utilization (%)
system.tol2bus.respLayer0.occupancy         188845748                       # Layer occupancy (ticks)
system.tol2bus.respLayer0.utilization             0.0                       # Layer utilization (%)
system.tol2bus.respLayer1.occupancy         220801576                       # Layer occupancy (ticks)
system.tol2bus.respLayer1.utilization             0.0                       # Layer utilization (%)
system.tol2bus.respLayer2.occupancy            989498                       # Layer occupancy (ticks)
system.tol2bus.respLayer2.utilization             0.0                       # Layer utilization (%)
system.tol2bus.respLayer3.occupancy         190626994                       # Layer occupancy (ticks)
system.tol2bus.respLayer3.utilization             0.0                       # Layer utilization (%)
system.tol2bus.respLayer4.occupancy           2310248                       # Layer occupancy (ticks)
system.tol2bus.respLayer4.utilization             0.0                       # Layer utilization (%)
system.tol2bus.respLayer5.occupancy           2205522                       # Layer occupancy (ticks)
system.tol2bus.respLayer5.utilization             0.0                       # Layer utilization (%)
system.tol2bus.respLayer6.occupancy            849749                       # Layer occupancy (ticks)
system.tol2bus.respLayer6.utilization             0.0                       # Layer utilization (%)
system.tol2bus.respLayer7.occupancy           1278247                       # Layer occupancy (ticks)
system.tol2bus.respLayer7.utilization             0.0                       # Layer utilization (%)
system.tol2bus.respLayer8.occupancy         168210748                       # Layer occupancy (ticks)
system.tol2bus.respLayer8.utilization             0.0                       # Layer utilization (%)
system.tol2bus.respLayer9.occupancy         253946981                       # Layer occupancy (ticks)
system.tol2bus.respLayer9.utilization             0.0                       # Layer utilization (%)
system.tol2bus.respLayer10.occupancy            19500                       # Layer occupancy (ticks)
system.tol2bus.respLayer10.utilization            0.0                       # Layer utilization (%)
system.tol2bus.respLayer11.occupancy           292750                       # Layer occupancy (ticks)
system.tol2bus.respLayer11.utilization            0.0                       # Layer utilization (%)
system.tol2bus.respLayer12.occupancy        169948741                       # Layer occupancy (ticks)
system.tol2bus.respLayer12.utilization            0.0                       # Layer utilization (%)
system.tol2bus.respLayer13.occupancy        254038677                       # Layer occupancy (ticks)
system.tol2bus.respLayer13.utilization            0.0                       # Layer utilization (%)
system.tol2bus.respLayer14.occupancy             1500                       # Layer occupancy (ticks)
system.tol2bus.respLayer14.utilization            0.0                       # Layer utilization (%)
system.tol2bus.respLayer15.occupancy           246500                       # Layer occupancy (ticks)
system.tol2bus.respLayer15.utilization            0.0                       # Layer utilization (%)
system.membus.trans_dist::ReadReq                7701                       # Transaction distribution
system.membus.trans_dist::ReadResp               7701                       # Transaction distribution
system.membus.trans_dist::WriteReq              22828                       # Transaction distribution
system.membus.trans_dist::WriteResp             22828                       # Transaction distribution
system.membus.trans_dist::Writeback                42                       # Transaction distribution
system.membus.trans_dist::UpgradeReq           183727                       # Transaction distribution
system.membus.trans_dist::UpgradeResp          175064                       # Transaction distribution
system.membus.trans_dist::ReadExReq              2114                       # Transaction distribution
system.membus.trans_dist::ReadExResp             2114                       # Transaction distribution
system.membus.trans_dist::MessageReq                2                       # Transaction distribution
system.membus.trans_dist::MessageResp               2                       # Transaction distribution
system.membus.pkt_count_system.l2.mem_side::system.bridge.slave           30                       # Packet count per connected master and slave (bytes)
system.membus.pkt_count_system.l2.mem_side::system.cpu0.interrupts.pio        15200                       # Packet count per connected master and slave (bytes)
system.membus.pkt_count_system.l2.mem_side::system.cpu1.interrupts.pio            2                       # Packet count per connected master and slave (bytes)
system.membus.pkt_count_system.l2.mem_side::system.cpu2.interrupts.pio        15218                       # Packet count per connected master and slave (bytes)
system.membus.pkt_count_system.l2.mem_side::system.cpu3.interrupts.pio        15216                       # Packet count per connected master and slave (bytes)
system.membus.pkt_count_system.l2.mem_side::system.mem_ctrls.port       378453                       # Packet count per connected master and slave (bytes)
system.membus.pkt_count_system.l2.mem_side::total       424119                       # Packet count per connected master and slave (bytes)
system.membus.pkt_count_system.cpu0.interrupts.int_master::system.cpu1.interrupts.int_slave            2                       # Packet count per connected master and slave (bytes)
system.membus.pkt_count_system.cpu0.interrupts.int_master::system.cpu2.interrupts.int_slave            2                       # Packet count per connected master and slave (bytes)
system.membus.pkt_count_system.cpu0.interrupts.int_master::total            4                       # Packet count per connected master and slave (bytes)
system.membus.pkt_count::total                 424123                       # Packet count per connected master and slave (bytes)
system.membus.pkt_size_system.l2.mem_side::system.bridge.slave           18                       # Cumulative packet size per connected master and slave (bytes)
system.membus.pkt_size_system.l2.mem_side::system.cpu0.interrupts.pio        30400                       # Cumulative packet size per connected master and slave (bytes)
system.membus.pkt_size_system.l2.mem_side::system.cpu1.interrupts.pio            4                       # Cumulative packet size per connected master and slave (bytes)
system.membus.pkt_size_system.l2.mem_side::system.cpu2.interrupts.pio        30436                       # Cumulative packet size per connected master and slave (bytes)
system.membus.pkt_size_system.l2.mem_side::system.cpu3.interrupts.pio        30432                       # Cumulative packet size per connected master and slave (bytes)
system.membus.pkt_size_system.l2.mem_side::system.mem_ctrls.port       630528                       # Cumulative packet size per connected master and slave (bytes)
system.membus.pkt_size_system.l2.mem_side::total       721818                       # Cumulative packet size per connected master and slave (bytes)
system.membus.pkt_size_system.cpu0.interrupts.int_master::system.cpu1.interrupts.int_slave            4                       # Cumulative packet size per connected master and slave (bytes)
system.membus.pkt_size_system.cpu0.interrupts.int_master::system.cpu2.interrupts.int_slave            4                       # Cumulative packet size per connected master and slave (bytes)
system.membus.pkt_size_system.cpu0.interrupts.int_master::total            8                       # Cumulative packet size per connected master and slave (bytes)
system.membus.pkt_size::total                  721826                       # Cumulative packet size per connected master and slave (bytes)
system.membus.snoops                             8663                       # Total snoops (count)
system.membus.snoop_fanout::samples            193579                       # Request fanout histogram
system.membus.snoop_fanout::mean                    1                       # Request fanout histogram
system.membus.snoop_fanout::stdev                   0                       # Request fanout histogram
system.membus.snoop_fanout::underflows              0      0.00%      0.00% # Request fanout histogram
system.membus.snoop_fanout::0                       0      0.00%      0.00% # Request fanout histogram
system.membus.snoop_fanout::1                  193579    100.00%    100.00% # Request fanout histogram
system.membus.snoop_fanout::2                       0      0.00%    100.00% # Request fanout histogram
system.membus.snoop_fanout::overflows               0      0.00%    100.00% # Request fanout histogram
system.membus.snoop_fanout::min_value               1                       # Request fanout histogram
system.membus.snoop_fanout::max_value               1                       # Request fanout histogram
system.membus.snoop_fanout::total              193579                       # Request fanout histogram
system.membus.reqLayer0.occupancy               30500                       # Layer occupancy (ticks)
system.membus.reqLayer0.utilization               0.0                       # Layer utilization (%)
system.membus.reqLayer1.occupancy            15210500                       # Layer occupancy (ticks)
system.membus.reqLayer1.utilization               0.0                       # Layer utilization (%)
system.membus.reqLayer3.occupancy                2000                       # Layer occupancy (ticks)
system.membus.reqLayer3.utilization               0.0                       # Layer utilization (%)
system.membus.reqLayer4.occupancy                2500                       # Layer occupancy (ticks)
system.membus.reqLayer4.utilization               0.0                       # Layer utilization (%)
system.membus.reqLayer5.occupancy            15239500                       # Layer occupancy (ticks)
system.membus.reqLayer5.utilization               0.0                       # Layer utilization (%)
system.membus.reqLayer6.occupancy                2500                       # Layer occupancy (ticks)
system.membus.reqLayer6.utilization               0.0                       # Layer utilization (%)
system.membus.reqLayer7.occupancy            15242500                       # Layer occupancy (ticks)
system.membus.reqLayer7.utilization               0.0                       # Layer utilization (%)
system.membus.reqLayer9.occupancy           209308500                       # Layer occupancy (ticks)
system.membus.reqLayer9.utilization               0.0                       # Layer utilization (%)
system.membus.respLayer3.occupancy          442358191                       # Layer occupancy (ticks)
system.membus.respLayer3.utilization              0.0                       # Layer utilization (%)
system.membus.respLayer4.occupancy               3000                       # Layer occupancy (ticks)
system.membus.respLayer4.utilization              0.0                       # Layer utilization (%)
system.pc.south_bridge.ide.disks0.dma_read_full_pages            0                       # Number of full page size DMA reads (not PRD).
system.pc.south_bridge.ide.disks0.dma_read_bytes            0                       # Number of bytes transfered via DMA reads (not PRD).
system.pc.south_bridge.ide.disks0.dma_read_txs            0                       # Number of DMA read transactions (not PRD).
system.pc.south_bridge.ide.disks0.dma_write_full_pages            0                       # Number of full page size DMA writes.
system.pc.south_bridge.ide.disks0.dma_write_bytes            0                       # Number of bytes transfered via DMA writes.
system.pc.south_bridge.ide.disks0.dma_write_txs            0                       # Number of DMA write transactions.
system.pc.south_bridge.ide.disks1.dma_read_full_pages            0                       # Number of full page size DMA reads (not PRD).
system.pc.south_bridge.ide.disks1.dma_read_bytes            0                       # Number of bytes transfered via DMA reads (not PRD).
system.pc.south_bridge.ide.disks1.dma_read_txs            0                       # Number of DMA read transactions (not PRD).
system.pc.south_bridge.ide.disks1.dma_write_full_pages            0                       # Number of full page size DMA writes.
system.pc.south_bridge.ide.disks1.dma_write_bytes            0                       # Number of bytes transfered via DMA writes.
system.pc.south_bridge.ide.disks1.dma_write_txs            0                       # Number of DMA write transactions.
system.l2.tags.replacements                       158                       # number of replacements
system.l2.tags.tagsinuse                  8195.935531                       # Cycle average of tags in use
system.l2.tags.total_refs                      535221                       # Total number of references to valid blocks.
system.l2.tags.sampled_refs                      9081                       # Sample count of references to valid blocks.
system.l2.tags.avg_refs                     58.938553                       # Average number of references to valid blocks.
system.l2.tags.warmup_cycle                         0                       # Cycle when the warmup percentage was hit.
system.l2.tags.occ_blocks::writebacks     1583.672342                       # Average occupied blocks per requestor
system.l2.tags.occ_blocks::cpu0.dtb.walker    34.085385                       # Average occupied blocks per requestor
system.l2.tags.occ_blocks::cpu0.itb.walker    10.169423                       # Average occupied blocks per requestor
system.l2.tags.occ_blocks::cpu0.inst      1696.214376                       # Average occupied blocks per requestor
system.l2.tags.occ_blocks::cpu0.data      1552.643112                       # Average occupied blocks per requestor
system.l2.tags.occ_blocks::cpu1.dtb.walker     0.999991                       # Average occupied blocks per requestor
system.l2.tags.occ_blocks::cpu1.itb.walker     3.999966                       # Average occupied blocks per requestor
system.l2.tags.occ_blocks::cpu1.inst       734.526217                       # Average occupied blocks per requestor
system.l2.tags.occ_blocks::cpu1.data       489.805603                       # Average occupied blocks per requestor
system.l2.tags.occ_blocks::cpu2.dtb.walker     0.978811                       # Average occupied blocks per requestor
system.l2.tags.occ_blocks::cpu2.inst        54.348327                       # Average occupied blocks per requestor
system.l2.tags.occ_blocks::cpu2.data       488.176640                       # Average occupied blocks per requestor
system.l2.tags.occ_blocks::cpu3.dtb.walker     4.673556                       # Average occupied blocks per requestor
system.l2.tags.occ_blocks::cpu3.inst       234.111645                       # Average occupied blocks per requestor
system.l2.tags.occ_blocks::cpu3.data      1307.530138                       # Average occupied blocks per requestor
system.l2.tags.occ_percent::writebacks       0.048330                       # Average percentage of cache occupancy
system.l2.tags.occ_percent::cpu0.dtb.walker     0.001040                       # Average percentage of cache occupancy
system.l2.tags.occ_percent::cpu0.itb.walker     0.000310                       # Average percentage of cache occupancy
system.l2.tags.occ_percent::cpu0.inst        0.051764                       # Average percentage of cache occupancy
system.l2.tags.occ_percent::cpu0.data        0.047383                       # Average percentage of cache occupancy
system.l2.tags.occ_percent::cpu1.dtb.walker     0.000031                       # Average percentage of cache occupancy
system.l2.tags.occ_percent::cpu1.itb.walker     0.000122                       # Average percentage of cache occupancy
system.l2.tags.occ_percent::cpu1.inst        0.022416                       # Average percentage of cache occupancy
system.l2.tags.occ_percent::cpu1.data        0.014948                       # Average percentage of cache occupancy
system.l2.tags.occ_percent::cpu2.dtb.walker     0.000030                       # Average percentage of cache occupancy
system.l2.tags.occ_percent::cpu2.inst        0.001659                       # Average percentage of cache occupancy
system.l2.tags.occ_percent::cpu2.data        0.014898                       # Average percentage of cache occupancy
system.l2.tags.occ_percent::cpu3.dtb.walker     0.000143                       # Average percentage of cache occupancy
system.l2.tags.occ_percent::cpu3.inst        0.007145                       # Average percentage of cache occupancy
system.l2.tags.occ_percent::cpu3.data        0.039903                       # Average percentage of cache occupancy
system.l2.tags.occ_percent::total            0.250120                       # Average percentage of cache occupancy
system.l2.tags.occ_task_id_blocks::1024          8923                       # Occupied blocks per task id
system.l2.tags.age_task_id_blocks_1024::4         8923                       # Occupied blocks per task id
system.l2.tags.occ_task_id_percent::1024     0.272308                       # Percentage of cache occupancy per task id
system.l2.tags.tag_accesses                   5813696                       # Number of tag accesses
system.l2.tags.data_accesses                  5813696                       # Number of data accesses
system.l2.ReadReq_hits::cpu0.dtb.walker        127023                       # number of ReadReq hits
system.l2.ReadReq_hits::cpu0.itb.walker           633                       # number of ReadReq hits
system.l2.ReadReq_hits::cpu0.inst              123770                       # number of ReadReq hits
system.l2.ReadReq_hits::cpu0.data               22761                       # number of ReadReq hits
system.l2.ReadReq_hits::cpu1.dtb.walker           616                       # number of ReadReq hits
system.l2.ReadReq_hits::cpu1.itb.walker           334                       # number of ReadReq hits
system.l2.ReadReq_hits::cpu1.inst                 716                       # number of ReadReq hits
system.l2.ReadReq_hits::cpu1.data                 297                       # number of ReadReq hits
system.l2.ReadReq_hits::cpu2.dtb.walker           194                       # number of ReadReq hits
system.l2.ReadReq_hits::cpu2.itb.walker            13                       # number of ReadReq hits
system.l2.ReadReq_hits::cpu2.inst              112079                       # number of ReadReq hits
system.l2.ReadReq_hits::cpu2.data               14837                       # number of ReadReq hits
system.l2.ReadReq_hits::cpu3.dtb.walker           159                       # number of ReadReq hits
system.l2.ReadReq_hits::cpu3.itb.walker             1                       # number of ReadReq hits
system.l2.ReadReq_hits::cpu3.inst              113013                       # number of ReadReq hits
system.l2.ReadReq_hits::cpu3.data               10861                       # number of ReadReq hits
system.l2.ReadReq_hits::total                  527307                       # number of ReadReq hits
system.l2.Writeback_hits::writebacks            10832                       # number of Writeback hits
system.l2.Writeback_hits::total                 10832                       # number of Writeback hits
system.l2.UpgradeReq_hits::cpu0.data               77                       # number of UpgradeReq hits
system.l2.UpgradeReq_hits::cpu1.data                8                       # number of UpgradeReq hits
system.l2.UpgradeReq_hits::cpu2.data               37                       # number of UpgradeReq hits
system.l2.UpgradeReq_hits::cpu3.data              230                       # number of UpgradeReq hits
system.l2.UpgradeReq_hits::total                  352                       # number of UpgradeReq hits
system.l2.ReadExReq_hits::cpu0.data               408                       # number of ReadExReq hits
system.l2.ReadExReq_hits::cpu1.data                17                       # number of ReadExReq hits
system.l2.ReadExReq_hits::cpu2.data               495                       # number of ReadExReq hits
system.l2.ReadExReq_hits::cpu3.data               749                       # number of ReadExReq hits
system.l2.ReadExReq_hits::total                  1669                       # number of ReadExReq hits
system.l2.demand_hits::cpu0.dtb.walker         127023                       # number of demand (read+write) hits
system.l2.demand_hits::cpu0.itb.walker            633                       # number of demand (read+write) hits
system.l2.demand_hits::cpu0.inst               123770                       # number of demand (read+write) hits
system.l2.demand_hits::cpu0.data                23169                       # number of demand (read+write) hits
system.l2.demand_hits::cpu1.dtb.walker            616                       # number of demand (read+write) hits
system.l2.demand_hits::cpu1.itb.walker            334                       # number of demand (read+write) hits
system.l2.demand_hits::cpu1.inst                  716                       # number of demand (read+write) hits
system.l2.demand_hits::cpu1.data                  314                       # number of demand (read+write) hits
system.l2.demand_hits::cpu2.dtb.walker            194                       # number of demand (read+write) hits
system.l2.demand_hits::cpu2.itb.walker             13                       # number of demand (read+write) hits
system.l2.demand_hits::cpu2.inst               112079                       # number of demand (read+write) hits
system.l2.demand_hits::cpu2.data                15332                       # number of demand (read+write) hits
system.l2.demand_hits::cpu3.dtb.walker            159                       # number of demand (read+write) hits
system.l2.demand_hits::cpu3.itb.walker              1                       # number of demand (read+write) hits
system.l2.demand_hits::cpu3.inst               113013                       # number of demand (read+write) hits
system.l2.demand_hits::cpu3.data                11610                       # number of demand (read+write) hits
system.l2.demand_hits::total                   528976                       # number of demand (read+write) hits
system.l2.overall_hits::cpu0.dtb.walker        127023                       # number of overall hits
system.l2.overall_hits::cpu0.itb.walker           633                       # number of overall hits
system.l2.overall_hits::cpu0.inst              123770                       # number of overall hits
system.l2.overall_hits::cpu0.data               23169                       # number of overall hits
system.l2.overall_hits::cpu1.dtb.walker           616                       # number of overall hits
system.l2.overall_hits::cpu1.itb.walker           334                       # number of overall hits
system.l2.overall_hits::cpu1.inst                 716                       # number of overall hits
system.l2.overall_hits::cpu1.data                 314                       # number of overall hits
system.l2.overall_hits::cpu2.dtb.walker           194                       # number of overall hits
system.l2.overall_hits::cpu2.itb.walker            13                       # number of overall hits
system.l2.overall_hits::cpu2.inst              112079                       # number of overall hits
system.l2.overall_hits::cpu2.data               15332                       # number of overall hits
system.l2.overall_hits::cpu3.dtb.walker           159                       # number of overall hits
system.l2.overall_hits::cpu3.itb.walker             1                       # number of overall hits
system.l2.overall_hits::cpu3.inst              113013                       # number of overall hits
system.l2.overall_hits::cpu3.data               11610                       # number of overall hits
system.l2.overall_hits::total                  528976                       # number of overall hits
system.l2.ReadReq_misses::cpu0.dtb.walker           41                       # number of ReadReq misses
system.l2.ReadReq_misses::cpu0.itb.walker           18                       # number of ReadReq misses
system.l2.ReadReq_misses::cpu0.inst              1905                       # number of ReadReq misses
system.l2.ReadReq_misses::cpu0.data              1884                       # number of ReadReq misses
system.l2.ReadReq_misses::cpu1.dtb.walker            1                       # number of ReadReq misses
system.l2.ReadReq_misses::cpu1.itb.walker            4                       # number of ReadReq misses
system.l2.ReadReq_misses::cpu1.inst               737                       # number of ReadReq misses
system.l2.ReadReq_misses::cpu1.data               501                       # number of ReadReq misses
system.l2.ReadReq_misses::cpu2.dtb.walker            1                       # number of ReadReq misses
system.l2.ReadReq_misses::cpu2.inst                56                       # number of ReadReq misses
system.l2.ReadReq_misses::cpu2.data               568                       # number of ReadReq misses
system.l2.ReadReq_misses::cpu3.dtb.walker            5                       # number of ReadReq misses
system.l2.ReadReq_misses::cpu3.inst               252                       # number of ReadReq misses
system.l2.ReadReq_misses::cpu3.data              1724                       # number of ReadReq misses
system.l2.ReadReq_misses::total                  7697                       # number of ReadReq misses
system.l2.UpgradeReq_misses::cpu0.data          91080                       # number of UpgradeReq misses
system.l2.UpgradeReq_misses::cpu1.data             24                       # number of UpgradeReq misses
system.l2.UpgradeReq_misses::cpu2.data          37983                       # number of UpgradeReq misses
system.l2.UpgradeReq_misses::cpu3.data          45974                       # number of UpgradeReq misses
system.l2.UpgradeReq_misses::total             175061                       # number of UpgradeReq misses
system.l2.ReadExReq_misses::cpu0.data            1133                       # number of ReadExReq misses
system.l2.ReadExReq_misses::cpu1.data             452                       # number of ReadExReq misses
system.l2.ReadExReq_misses::cpu2.data             152                       # number of ReadExReq misses
system.l2.ReadExReq_misses::cpu3.data             380                       # number of ReadExReq misses
system.l2.ReadExReq_misses::total                2117                       # number of ReadExReq misses
system.l2.demand_misses::cpu0.dtb.walker           41                       # number of demand (read+write) misses
system.l2.demand_misses::cpu0.itb.walker           18                       # number of demand (read+write) misses
system.l2.demand_misses::cpu0.inst               1905                       # number of demand (read+write) misses
system.l2.demand_misses::cpu0.data               3017                       # number of demand (read+write) misses
system.l2.demand_misses::cpu1.dtb.walker            1                       # number of demand (read+write) misses
system.l2.demand_misses::cpu1.itb.walker            4                       # number of demand (read+write) misses
system.l2.demand_misses::cpu1.inst                737                       # number of demand (read+write) misses
system.l2.demand_misses::cpu1.data                953                       # number of demand (read+write) misses
system.l2.demand_misses::cpu2.dtb.walker            1                       # number of demand (read+write) misses
system.l2.demand_misses::cpu2.inst                 56                       # number of demand (read+write) misses
system.l2.demand_misses::cpu2.data                720                       # number of demand (read+write) misses
system.l2.demand_misses::cpu3.dtb.walker            5                       # number of demand (read+write) misses
system.l2.demand_misses::cpu3.inst                252                       # number of demand (read+write) misses
system.l2.demand_misses::cpu3.data               2104                       # number of demand (read+write) misses
system.l2.demand_misses::total                   9814                       # number of demand (read+write) misses
system.l2.overall_misses::cpu0.dtb.walker           41                       # number of overall misses
system.l2.overall_misses::cpu0.itb.walker           18                       # number of overall misses
system.l2.overall_misses::cpu0.inst              1905                       # number of overall misses
system.l2.overall_misses::cpu0.data              3017                       # number of overall misses
system.l2.overall_misses::cpu1.dtb.walker            1                       # number of overall misses
system.l2.overall_misses::cpu1.itb.walker            4                       # number of overall misses
system.l2.overall_misses::cpu1.inst               737                       # number of overall misses
system.l2.overall_misses::cpu1.data               953                       # number of overall misses
system.l2.overall_misses::cpu2.dtb.walker            1                       # number of overall misses
system.l2.overall_misses::cpu2.inst                56                       # number of overall misses
system.l2.overall_misses::cpu2.data               720                       # number of overall misses
system.l2.overall_misses::cpu3.dtb.walker            5                       # number of overall misses
system.l2.overall_misses::cpu3.inst               252                       # number of overall misses
system.l2.overall_misses::cpu3.data              2104                       # number of overall misses
system.l2.overall_misses::total                  9814                       # number of overall misses
system.l2.ReadReq_miss_latency::cpu0.dtb.walker      3345000                       # number of ReadReq miss cycles
system.l2.ReadReq_miss_latency::cpu0.itb.walker      1384500                       # number of ReadReq miss cycles
system.l2.ReadReq_miss_latency::cpu0.inst    139554500                       # number of ReadReq miss cycles
system.l2.ReadReq_miss_latency::cpu0.data    156520248                       # number of ReadReq miss cycles
system.l2.ReadReq_miss_latency::cpu1.dtb.walker        88750                       # number of ReadReq miss cycles
system.l2.ReadReq_miss_latency::cpu1.itb.walker       341250                       # number of ReadReq miss cycles
system.l2.ReadReq_miss_latency::cpu1.inst     53503250                       # number of ReadReq miss cycles
system.l2.ReadReq_miss_latency::cpu1.data     40160500                       # number of ReadReq miss cycles
system.l2.ReadReq_miss_latency::cpu2.dtb.walker        88750                       # number of ReadReq miss cycles
system.l2.ReadReq_miss_latency::cpu2.inst      4922500                       # number of ReadReq miss cycles
system.l2.ReadReq_miss_latency::cpu2.data     46550500                       # number of ReadReq miss cycles
system.l2.ReadReq_miss_latency::cpu3.dtb.walker       402000                       # number of ReadReq miss cycles
system.l2.ReadReq_miss_latency::cpu3.inst     18636500                       # number of ReadReq miss cycles
system.l2.ReadReq_miss_latency::cpu3.data    136314000                       # number of ReadReq miss cycles
system.l2.ReadReq_miss_latency::total       601812248                       # number of ReadReq miss cycles
system.l2.UpgradeReq_miss_latency::cpu1.data        46998                       # number of UpgradeReq miss cycles
system.l2.UpgradeReq_miss_latency::cpu3.data      4527805                       # number of UpgradeReq miss cycles
system.l2.UpgradeReq_miss_latency::total      4574803                       # number of UpgradeReq miss cycles
system.l2.ReadExReq_miss_latency::cpu0.data     83502997                       # number of ReadExReq miss cycles
system.l2.ReadExReq_miss_latency::cpu1.data     36615000                       # number of ReadExReq miss cycles
system.l2.ReadExReq_miss_latency::cpu2.data     11499000                       # number of ReadExReq miss cycles
system.l2.ReadExReq_miss_latency::cpu3.data     29051249                       # number of ReadExReq miss cycles
system.l2.ReadExReq_miss_latency::total     160668246                       # number of ReadExReq miss cycles
system.l2.demand_miss_latency::cpu0.dtb.walker      3345000                       # number of demand (read+write) miss cycles
system.l2.demand_miss_latency::cpu0.itb.walker      1384500                       # number of demand (read+write) miss cycles
system.l2.demand_miss_latency::cpu0.inst    139554500                       # number of demand (read+write) miss cycles
system.l2.demand_miss_latency::cpu0.data    240023245                       # number of demand (read+write) miss cycles
system.l2.demand_miss_latency::cpu1.dtb.walker        88750                       # number of demand (read+write) miss cycles
system.l2.demand_miss_latency::cpu1.itb.walker       341250                       # number of demand (read+write) miss cycles
[...]
system.cpu3.dtb_walker_cache.demand_avg_mshr_miss_latency::total 13149.390244                       # average overall mshr miss latency
system.cpu3.dtb_walker_cache.overall_avg_mshr_miss_latency::cpu3.dtb.walker 13149.390244                       # average overall mshr miss latency
system.cpu3.dtb_walker_cache.overall_avg_mshr_miss_latency::total 13149.390244                       # average overall mshr miss latency
system.cpu3.dtb_walker_cache.no_allocate_misses            0                       # Number of misses that were no-allocate
system.cpu3.dcache.tags.replacements            13191                       # number of replacements
system.cpu3.dcache.tags.tagsinuse          820.002906                       # Cycle average of tags in use
system.cpu3.dcache.tags.total_refs            8158098                       # Total number of references to valid blocks.
system.cpu3.dcache.tags.sampled_refs            14095                       # Sample count of references to valid blocks.
system.cpu3.dcache.tags.avg_refs           578.793757                       # Average number of references to valid blocks.
system.cpu3.dcache.tags.warmup_cycle                0                       # Cycle when the warmup percentage was hit.
system.cpu3.dcache.tags.occ_blocks::cpu3.data   820.002906                       # Average occupied blocks per requestor
system.cpu3.dcache.tags.occ_percent::cpu3.data     0.800784                       # Average percentage of cache occupancy
system.cpu3.dcache.tags.occ_percent::total     0.800784                       # Average percentage of cache occupancy
system.cpu3.dcache.tags.occ_task_id_blocks::1024          904                       # Occupied blocks per task id
system.cpu3.dcache.tags.age_task_id_blocks_1024::4          904                       # Occupied blocks per task id
system.cpu3.dcache.tags.occ_task_id_percent::1024     0.882812                       # Percentage of cache occupancy per task id
system.cpu3.dcache.tags.tag_accesses         17026625                       # Number of tag accesses
system.cpu3.dcache.tags.data_accesses        17026625                       # Number of data accesses
system.cpu3.dcache.ReadReq_hits::cpu3.data      4974922                       # number of ReadReq hits
system.cpu3.dcache.ReadReq_hits::total        4974922                       # number of ReadReq hits
system.cpu3.dcache.WriteReq_hits::cpu3.data      3136698                       # number of WriteReq hits
system.cpu3.dcache.WriteReq_hits::total       3136698                       # number of WriteReq hits
system.cpu3.dcache.SoftPFReq_hits::cpu3.data          412                       # number of SoftPFReq hits
system.cpu3.dcache.SoftPFReq_hits::total          412                       # number of SoftPFReq hits
system.cpu3.dcache.demand_hits::cpu3.data      8111620                       # number of demand (read+write) hits
system.cpu3.dcache.demand_hits::total         8111620                       # number of demand (read+write) hits
system.cpu3.dcache.overall_hits::cpu3.data      8112032                       # number of overall hits
system.cpu3.dcache.overall_hits::total        8112032                       # number of overall hits
system.cpu3.dcache.ReadReq_misses::cpu3.data       267973                       # number of ReadReq misses
system.cpu3.dcache.ReadReq_misses::total       267973                       # number of ReadReq misses
system.cpu3.dcache.WriteReq_misses::cpu3.data        55839                       # number of WriteReq misses
system.cpu3.dcache.WriteReq_misses::total        55839                       # number of WriteReq misses
system.cpu3.dcache.SoftPFReq_misses::cpu3.data         1935                       # number of SoftPFReq misses
system.cpu3.dcache.SoftPFReq_misses::total         1935                       # number of SoftPFReq misses
system.cpu3.dcache.demand_misses::cpu3.data       323812                       # number of demand (read+write) misses
system.cpu3.dcache.demand_misses::total        323812                       # number of demand (read+write) misses
system.cpu3.dcache.overall_misses::cpu3.data       325747                       # number of overall misses
system.cpu3.dcache.overall_misses::total       325747                       # number of overall misses
system.cpu3.dcache.ReadReq_miss_latency::cpu3.data   1874138400                       # number of ReadReq miss cycles
system.cpu3.dcache.ReadReq_miss_latency::total   1874138400                       # number of ReadReq miss cycles
system.cpu3.dcache.WriteReq_miss_latency::cpu3.data   1248617424                       # number of WriteReq miss cycles
system.cpu3.dcache.WriteReq_miss_latency::total   1248617424                       # number of WriteReq miss cycles
system.cpu3.dcache.demand_miss_latency::cpu3.data   3122755824                       # number of demand (read+write) miss cycles
system.cpu3.dcache.demand_miss_latency::total   3122755824                       # number of demand (read+write) miss cycles
system.cpu3.dcache.overall_miss_latency::cpu3.data   3122755824                       # number of overall miss cycles
system.cpu3.dcache.overall_miss_latency::total   3122755824                       # number of overall miss cycles
system.cpu3.dcache.ReadReq_accesses::cpu3.data      5242895                       # number of ReadReq accesses(hits+misses)
system.cpu3.dcache.ReadReq_accesses::total      5242895                       # number of ReadReq accesses(hits+misses)
system.cpu3.dcache.WriteReq_accesses::cpu3.data      3192537                       # number of WriteReq accesses(hits+misses)
system.cpu3.dcache.WriteReq_accesses::total      3192537                       # number of WriteReq accesses(hits+misses)
system.cpu3.dcache.SoftPFReq_accesses::cpu3.data         2347                       # number of SoftPFReq accesses(hits+misses)
system.cpu3.dcache.SoftPFReq_accesses::total         2347                       # number of SoftPFReq accesses(hits+misses)
system.cpu3.dcache.demand_accesses::cpu3.data      8435432                       # number of demand (read+write) accesses
system.cpu3.dcache.demand_accesses::total      8435432                       # number of demand (read+write) accesses
system.cpu3.dcache.overall_accesses::cpu3.data      8437779                       # number of overall (read+write) accesses
system.cpu3.dcache.overall_accesses::total      8437779                       # number of overall (read+write) accesses
system.cpu3.dcache.ReadReq_miss_rate::cpu3.data     0.051112                       # miss rate for ReadReq accesses
system.cpu3.dcache.ReadReq_miss_rate::total     0.051112                       # miss rate for ReadReq accesses
system.cpu3.dcache.WriteReq_miss_rate::cpu3.data     0.017490                       # miss rate for WriteReq accesses
system.cpu3.dcache.WriteReq_miss_rate::total     0.017490                       # miss rate for WriteReq accesses
system.cpu3.dcache.SoftPFReq_miss_rate::cpu3.data     0.824457                       # miss rate for SoftPFReq accesses
system.cpu3.dcache.SoftPFReq_miss_rate::total     0.824457                       # miss rate for SoftPFReq accesses
system.cpu3.dcache.demand_miss_rate::cpu3.data     0.038387                       # miss rate for demand accesses
system.cpu3.dcache.demand_miss_rate::total     0.038387                       # miss rate for demand accesses
system.cpu3.dcache.overall_miss_rate::cpu3.data     0.038606                       # miss rate for overall accesses
system.cpu3.dcache.overall_miss_rate::total     0.038606                       # miss rate for overall accesses
system.cpu3.dcache.ReadReq_avg_miss_latency::cpu3.data  6993.758326                       # average ReadReq miss latency
system.cpu3.dcache.ReadReq_avg_miss_latency::total  6993.758326                       # average ReadReq miss latency
system.cpu3.dcache.WriteReq_avg_miss_latency::cpu3.data 22361.027669                       # average WriteReq miss latency
system.cpu3.dcache.WriteReq_avg_miss_latency::total 22361.027669                       # average WriteReq miss latency
system.cpu3.dcache.demand_avg_miss_latency::cpu3.data  9643.731004                       # average overall miss latency
system.cpu3.dcache.demand_avg_miss_latency::total  9643.731004                       # average overall miss latency
system.cpu3.dcache.overall_avg_miss_latency::cpu3.data  9586.445382                       # average overall miss latency
system.cpu3.dcache.overall_avg_miss_latency::total  9586.445382                       # average overall miss latency
system.cpu3.dcache.blocked_cycles::no_mshrs        48995                       # number of cycles access was blocked
system.cpu3.dcache.blocked_cycles::no_targets            0                       # number of cycles access was blocked
system.cpu3.dcache.blocked::no_mshrs             8299                       # number of cycles access was blocked
system.cpu3.dcache.blocked::no_targets              0                       # number of cycles access was blocked
system.cpu3.dcache.avg_blocked_cycles::no_mshrs     5.903723                       # average number of cycles each access was blocked
system.cpu3.dcache.avg_blocked_cycles::no_targets          nan                       # average number of cycles each access was blocked
system.cpu3.dcache.fast_writes                      0                       # number of fast writes performed
system.cpu3.dcache.cache_copies                     0                       # number of cache copies performed
system.cpu3.dcache.writebacks::writebacks         4178                       # number of writebacks
system.cpu3.dcache.writebacks::total             4178                       # number of writebacks
system.cpu3.dcache.ReadReq_mshr_hits::cpu3.data       127541                       # number of ReadReq MSHR hits
system.cpu3.dcache.ReadReq_mshr_hits::total       127541                       # number of ReadReq MSHR hits
system.cpu3.dcache.WriteReq_mshr_hits::cpu3.data          482                       # number of WriteReq MSHR hits
system.cpu3.dcache.WriteReq_mshr_hits::total          482                       # number of WriteReq MSHR hits
system.cpu3.dcache.demand_mshr_hits::cpu3.data       128023                       # number of demand (read+write) MSHR hits
system.cpu3.dcache.demand_mshr_hits::total       128023                       # number of demand (read+write) MSHR hits
system.cpu3.dcache.overall_mshr_hits::cpu3.data       128023                       # number of overall MSHR hits
system.cpu3.dcache.overall_mshr_hits::total       128023                       # number of overall MSHR hits
system.cpu3.dcache.ReadReq_mshr_misses::cpu3.data       140432                       # number of ReadReq MSHR misses
system.cpu3.dcache.ReadReq_mshr_misses::total       140432                       # number of ReadReq MSHR misses
system.cpu3.dcache.WriteReq_mshr_misses::cpu3.data        55357                       # number of WriteReq MSHR misses
system.cpu3.dcache.WriteReq_mshr_misses::total        55357                       # number of WriteReq MSHR misses
system.cpu3.dcache.SoftPFReq_mshr_misses::cpu3.data         1927                       # number of SoftPFReq MSHR misses
system.cpu3.dcache.SoftPFReq_mshr_misses::total         1927                       # number of SoftPFReq MSHR misses
system.cpu3.dcache.demand_mshr_misses::cpu3.data       195789                       # number of demand (read+write) MSHR misses
system.cpu3.dcache.demand_mshr_misses::total       195789                       # number of demand (read+write) MSHR misses
system.cpu3.dcache.overall_mshr_misses::cpu3.data       197716                       # number of overall MSHR misses
system.cpu3.dcache.overall_mshr_misses::total       197716                       # number of overall MSHR misses
system.cpu3.dcache.ReadReq_mshr_miss_latency::cpu3.data    590688001                       # number of ReadReq MSHR miss cycles
system.cpu3.dcache.ReadReq_mshr_miss_latency::total    590688001                       # number of ReadReq MSHR miss cycles
system.cpu3.dcache.WriteReq_mshr_miss_latency::cpu3.data   1129825568                       # number of WriteReq MSHR miss cycles
system.cpu3.dcache.WriteReq_mshr_miss_latency::total   1129825568                       # number of WriteReq MSHR miss cycles
system.cpu3.dcache.SoftPFReq_mshr_miss_latency::cpu3.data     30209000                       # number of SoftPFReq MSHR miss cycles
system.cpu3.dcache.SoftPFReq_mshr_miss_latency::total     30209000                       # number of SoftPFReq MSHR miss cycles
system.cpu3.dcache.demand_mshr_miss_latency::cpu3.data   1720513569                       # number of demand (read+write) MSHR miss cycles
system.cpu3.dcache.demand_mshr_miss_latency::total   1720513569                       # number of demand (read+write) MSHR miss cycles
system.cpu3.dcache.overall_mshr_miss_latency::cpu3.data   1750722569                       # number of overall MSHR miss cycles
system.cpu3.dcache.overall_mshr_miss_latency::total   1750722569                       # number of overall MSHR miss cycles
system.cpu3.dcache.WriteReq_mshr_uncacheable_latency::cpu3.data    928202500                       # number of WriteReq MSHR uncacheable cycles
system.cpu3.dcache.WriteReq_mshr_uncacheable_latency::total    928202500                       # number of WriteReq MSHR uncacheable cycles
system.cpu3.dcache.overall_mshr_uncacheable_latency::cpu3.data    928202500                       # number of overall MSHR uncacheable cycles
system.cpu3.dcache.overall_mshr_uncacheable_latency::total    928202500                       # number of overall MSHR uncacheable cycles
system.cpu3.dcache.ReadReq_mshr_miss_rate::cpu3.data     0.026785                       # mshr miss rate for ReadReq accesses
system.cpu3.dcache.ReadReq_mshr_miss_rate::total     0.026785                       # mshr miss rate for ReadReq accesses
system.cpu3.dcache.WriteReq_mshr_miss_rate::cpu3.data     0.017340                       # mshr miss rate for WriteReq accesses
system.cpu3.dcache.WriteReq_mshr_miss_rate::total     0.017340                       # mshr miss rate for WriteReq accesses
system.cpu3.dcache.SoftPFReq_mshr_miss_rate::cpu3.data     0.821048                       # mshr miss rate for SoftPFReq accesses
system.cpu3.dcache.SoftPFReq_mshr_miss_rate::total     0.821048                       # mshr miss rate for SoftPFReq accesses
system.cpu3.dcache.demand_mshr_miss_rate::cpu3.data     0.023210                       # mshr miss rate for demand accesses
system.cpu3.dcache.demand_mshr_miss_rate::total     0.023210                       # mshr miss rate for demand accesses
system.cpu3.dcache.overall_mshr_miss_rate::cpu3.data     0.023432                       # mshr miss rate for overall accesses
system.cpu3.dcache.overall_mshr_miss_rate::total     0.023432                       # mshr miss rate for overall accesses
system.cpu3.dcache.ReadReq_avg_mshr_miss_latency::cpu3.data  4206.220811                       # average ReadReq mshr miss latency
system.cpu3.dcache.ReadReq_avg_mshr_miss_latency::total  4206.220811                       # average ReadReq mshr miss latency
system.cpu3.dcache.WriteReq_avg_mshr_miss_latency::cpu3.data 20409.804867                       # average WriteReq mshr miss latency
system.cpu3.dcache.WriteReq_avg_mshr_miss_latency::total 20409.804867                       # average WriteReq mshr miss latency
system.cpu3.dcache.SoftPFReq_avg_mshr_miss_latency::cpu3.data 15676.699533                       # average SoftPFReq mshr miss latency
system.cpu3.dcache.SoftPFReq_avg_mshr_miss_latency::total 15676.699533                       # average SoftPFReq mshr miss latency
system.cpu3.dcache.demand_avg_mshr_miss_latency::cpu3.data  8787.590564                       # average overall mshr miss latency
system.cpu3.dcache.demand_avg_mshr_miss_latency::total  8787.590564                       # average overall mshr miss latency
system.cpu3.dcache.overall_avg_mshr_miss_latency::cpu3.data  8854.733906                       # average overall mshr miss latency
system.cpu3.dcache.overall_avg_mshr_miss_latency::total  8854.733906                       # average overall mshr miss latency
system.cpu3.dcache.WriteReq_avg_mshr_uncacheable_latency::cpu3.data          inf                       # average WriteReq mshr uncacheable latency
system.cpu3.dcache.WriteReq_avg_mshr_uncacheable_latency::total          inf                       # average WriteReq mshr uncacheable latency
system.cpu3.dcache.overall_avg_mshr_uncacheable_latency::cpu3.data          inf                       # average overall mshr uncacheable latency
system.cpu3.dcache.overall_avg_mshr_uncacheable_latency::total          inf                       # average overall mshr uncacheable latency
system.cpu3.dcache.no_allocate_misses               0                       # Number of misses that were no-allocate
system.iocache.tags.replacements                    0                       # number of replacements
system.iocache.tags.tagsinuse                       0                       # Cycle average of tags in use
system.iocache.tags.total_refs                      0                       # Total number of references to valid blocks.
system.iocache.tags.sampled_refs                    0                       # Sample count of references to valid blocks.
system.iocache.tags.avg_refs                      nan                       # Average number of references to valid blocks.
system.iocache.tags.warmup_cycle                    0                       # Cycle when the warmup percentage was hit.
system.iocache.tags.tag_accesses                    0                       # Number of tag accesses
system.iocache.tags.data_accesses                   0                       # Number of data accesses
system.iocache.blocked_cycles::no_mshrs             0                       # number of cycles access was blocked
system.iocache.blocked_cycles::no_targets            0                       # number of cycles access was blocked
system.iocache.blocked::no_mshrs                    0                       # number of cycles access was blocked
system.iocache.blocked::no_targets                  0                       # number of cycles access was blocked
system.iocache.avg_blocked_cycles::no_mshrs          nan                       # average number of cycles each access was blocked
system.iocache.avg_blocked_cycles::no_targets          nan                       # average number of cycles each access was blocked
system.iocache.fast_writes                          0                       # number of fast writes performed
system.iocache.cache_copies                         0                       # number of cache copies performed
system.iocache.no_allocate_misses                   0                       # Number of misses that were no-allocate
system.cpu0.kern.inst.arm                           0                       # number of arm instructions executed
system.cpu0.kern.inst.quiesce                       0                       # number of quiesce instructions executed
system.cpu1.kern.inst.arm                           0                       # number of arm instructions executed
system.cpu1.kern.inst.quiesce                       2                       # number of quiesce instructions executed
system.cpu2.kern.inst.arm                           0                       # number of arm instructions executed
system.cpu2.kern.inst.quiesce                       0                       # number of quiesce instructions executed
system.cpu3.kern.inst.arm                           0                       # number of arm instructions executed
system.cpu3.kern.inst.quiesce                       0                       # number of quiesce instructions executed

---------- End Simulation Statistics   ----------
