
---------- Begin Simulation Statistics ----------
sim_seconds                                  0.019831                       # Number of seconds simulated
sim_ticks                                 19831179000                       # Number of ticks simulated
final_tick                               3214977155500                       # Number of ticks from beginning of simulation (restored from checkpoints and never reset)
sim_freq                                 1000000000000                       # Frequency of simulated ticks
host_inst_rate                                 217841                       # Simulator instruction rate (inst/s)
host_op_rate                                   222593                       # Simulator op (including micro ops) rate (op/s)
host_tick_rate                               13817416                       # Simulator tick rate (ticks/s)
host_mem_usage                                 981612                       # Number of bytes of host memory used
host_seconds                                  1435.23                       # Real time elapsed on the host
sim_insts                                   312652366                       # Number of instructions simulated
sim_ops                                     319472725                       # Number of ops (including micro ops) simulated
system.voltage_domain.voltage                       1                       # Voltage in Volts
system.clk_domain.clock                          1000                       # Clock period in ticks
system.mem_ctrls.bytes_read::switch_cpus0.dtb.walker         3584                       # Number of bytes read from this memory
system.mem_ctrls.bytes_read::switch_cpus0.itb.walker         1152                       # Number of bytes read from this memory
system.mem_ctrls.bytes_read::switch_cpus0.inst        38016                       # Number of bytes read from this memory
system.mem_ctrls.bytes_read::switch_cpus0.data       181952                       # Number of bytes read from this memory
system.mem_ctrls.bytes_read::switch_cpus1.dtb.walker          832                       # Number of bytes read from this memory
system.mem_ctrls.bytes_read::switch_cpus1.itb.walker          832                       # Number of bytes read from this memory
system.mem_ctrls.bytes_read::switch_cpus1.inst        17600                       # Number of bytes read from this memory
system.mem_ctrls.bytes_read::switch_cpus1.data       141824                       # Number of bytes read from this memory
system.mem_ctrls.bytes_read::switch_cpus2.dtb.walker         1664                       # Number of bytes read from this memory
system.mem_ctrls.bytes_read::switch_cpus2.itb.walker          384                       # Number of bytes read from this memory
system.mem_ctrls.bytes_read::switch_cpus2.inst       104512                       # Number of bytes read from this memory
system.mem_ctrls.bytes_read::switch_cpus2.data       513856                       # Number of bytes read from this memory
system.mem_ctrls.bytes_read::switch_cpus3.dtb.walker          768                       # Number of bytes read from this memory
system.mem_ctrls.bytes_read::switch_cpus3.itb.walker          256                       # Number of bytes read from this memory
system.mem_ctrls.bytes_read::switch_cpus3.inst         8064                       # Number of bytes read from this memory
system.mem_ctrls.bytes_read::switch_cpus3.data       137856                       # Number of bytes read from this memory
system.mem_ctrls.bytes_read::switch_cpus4.dtb.walker          448                       # Number of bytes read from this memory
system.mem_ctrls.bytes_read::switch_cpus4.itb.walker          320                       # Number of bytes read from this memory
system.mem_ctrls.bytes_read::switch_cpus4.inst         7040                       # Number of bytes read from this memory
system.mem_ctrls.bytes_read::switch_cpus4.data       123200                       # Number of bytes read from this memory
system.mem_ctrls.bytes_read::switch_cpus5.dtb.walker         3968                       # Number of bytes read from this memory
system.mem_ctrls.bytes_read::switch_cpus5.itb.walker         2944                       # Number of bytes read from this memory
system.mem_ctrls.bytes_read::switch_cpus5.inst        36864                       # Number of bytes read from this memory
system.mem_ctrls.bytes_read::switch_cpus5.data       260672                       # Number of bytes read from this memory
system.mem_ctrls.bytes_read::switch_cpus6.dtb.walker         1856                       # Number of bytes read from this memory
system.mem_ctrls.bytes_read::switch_cpus6.itb.walker         3072                       # Number of bytes read from this memory
system.mem_ctrls.bytes_read::switch_cpus6.inst        51584                       # Number of bytes read from this memory
system.mem_ctrls.bytes_read::switch_cpus6.data       305664                       # Number of bytes read from this memory
system.mem_ctrls.bytes_read::switch_cpus7.dtb.walker         2112                       # Number of bytes read from this memory
system.mem_ctrls.bytes_read::switch_cpus7.itb.walker         2176                       # Number of bytes read from this memory
system.mem_ctrls.bytes_read::switch_cpus7.inst        66688                       # Number of bytes read from this memory
system.mem_ctrls.bytes_read::switch_cpus7.data       282368                       # Number of bytes read from this memory
system.mem_ctrls.bytes_read::l2.prefetcher      4333632                       # Number of bytes read from this memory
system.mem_ctrls.bytes_read::cpu0.inst            256                       # Number of bytes read from this memory
system.mem_ctrls.bytes_read::cpu0.data            192                       # Number of bytes read from this memory
system.mem_ctrls.bytes_read::cpu2.inst            256                       # Number of bytes read from this memory
system.mem_ctrls.bytes_read::cpu2.data            256                       # Number of bytes read from this memory
system.mem_ctrls.bytes_read::total            6638720                       # Number of bytes read from this memory
system.mem_ctrls.bytes_inst_read::switch_cpus0.inst        38016                       # Number of instructions bytes read from this memory
system.mem_ctrls.bytes_inst_read::switch_cpus1.inst        17600                       # Number of instructions bytes read from this memory
system.mem_ctrls.bytes_inst_read::switch_cpus2.inst       104512                       # Number of instructions bytes read from this memory
system.mem_ctrls.bytes_inst_read::switch_cpus3.inst         8064                       # Number of instructions bytes read from this memory
system.mem_ctrls.bytes_inst_read::switch_cpus4.inst         7040                       # Number of instructions bytes read from this memory
system.mem_ctrls.bytes_inst_read::switch_cpus5.inst        36864                       # Number of instructions bytes read from this memory
system.mem_ctrls.bytes_inst_read::switch_cpus6.inst        51584                       # Number of instructions bytes read from this memory
system.mem_ctrls.bytes_inst_read::switch_cpus7.inst        66688                       # Number of instructions bytes read from this memory
system.mem_ctrls.bytes_inst_read::cpu0.inst          256                       # Number of instructions bytes read from this memory
system.mem_ctrls.bytes_inst_read::cpu2.inst          256                       # Number of instructions bytes read from this memory
system.mem_ctrls.bytes_inst_read::total        330880                       # Number of instructions bytes read from this memory
system.mem_ctrls.bytes_written::writebacks      1735104                       # Number of bytes written to this memory
system.mem_ctrls.bytes_written::realview.ide         8192                       # Number of bytes written to this memory
system.mem_ctrls.bytes_written::total         1743296                       # Number of bytes written to this memory
system.mem_ctrls.num_reads::switch_cpus0.dtb.walker           56                       # Number of read requests responded to by this memory
system.mem_ctrls.num_reads::switch_cpus0.itb.walker           18                       # Number of read requests responded to by this memory
system.mem_ctrls.num_reads::switch_cpus0.inst          594                       # Number of read requests responded to by this memory
system.mem_ctrls.num_reads::switch_cpus0.data         2843                       # Number of read requests responded to by this memory
system.mem_ctrls.num_reads::switch_cpus1.dtb.walker           13                       # Number of read requests responded to by this memory
system.mem_ctrls.num_reads::switch_cpus1.itb.walker           13                       # Number of read requests responded to by this memory
system.mem_ctrls.num_reads::switch_cpus1.inst          275                       # Number of read requests responded to by this memory
system.mem_ctrls.num_reads::switch_cpus1.data         2216                       # Number of read requests responded to by this memory
system.mem_ctrls.num_reads::switch_cpus2.dtb.walker           26                       # Number of read requests responded to by this memory
system.mem_ctrls.num_reads::switch_cpus2.itb.walker            6                       # Number of read requests responded to by this memory
system.mem_ctrls.num_reads::switch_cpus2.inst         1633                       # Number of read requests responded to by this memory
system.mem_ctrls.num_reads::switch_cpus2.data         8029                       # Number of read requests responded to by this memory
system.mem_ctrls.num_reads::switch_cpus3.dtb.walker           12                       # Number of read requests responded to by this memory
system.mem_ctrls.num_reads::switch_cpus3.itb.walker            4                       # Number of read requests responded to by this memory
system.mem_ctrls.num_reads::switch_cpus3.inst          126                       # Number of read requests responded to by this memory
system.mem_ctrls.num_reads::switch_cpus3.data         2154                       # Number of read requests responded to by this memory
system.mem_ctrls.num_reads::switch_cpus4.dtb.walker            7                       # Number of read requests responded to by this memory
system.mem_ctrls.num_reads::switch_cpus4.itb.walker            5                       # Number of read requests responded to by this memory
system.mem_ctrls.num_reads::switch_cpus4.inst          110                       # Number of read requests responded to by this memory
system.mem_ctrls.num_reads::switch_cpus4.data         1925                       # Number of read requests responded to by this memory
system.mem_ctrls.num_reads::switch_cpus5.dtb.walker           62                       # Number of read requests responded to by this memory
system.mem_ctrls.num_reads::switch_cpus5.itb.walker           46                       # Number of read requests responded to by this memory
system.mem_ctrls.num_reads::switch_cpus5.inst          576                       # Number of read requests responded to by this memory
system.mem_ctrls.num_reads::switch_cpus5.data         4073                       # Number of read requests responded to by this memory
system.mem_ctrls.num_reads::switch_cpus6.dtb.walker           29                       # Number of read requests responded to by this memory
system.mem_ctrls.num_reads::switch_cpus6.itb.walker           48                       # Number of read requests responded to by this memory
system.mem_ctrls.num_reads::switch_cpus6.inst          806                       # Number of read requests responded to by this memory
system.mem_ctrls.num_reads::switch_cpus6.data         4776                       # Number of read requests responded to by this memory
system.mem_ctrls.num_reads::switch_cpus7.dtb.walker           33                       # Number of read requests responded to by this memory
system.mem_ctrls.num_reads::switch_cpus7.itb.walker           34                       # Number of read requests responded to by this memory
system.mem_ctrls.num_reads::switch_cpus7.inst         1042                       # Number of read requests responded to by this memory
system.mem_ctrls.num_reads::switch_cpus7.data         4412                       # Number of read requests responded to by this memory
system.mem_ctrls.num_reads::l2.prefetcher        67713                       # Number of read requests responded to by this memory
system.mem_ctrls.num_reads::cpu0.inst               4                       # Number of read requests responded to by this memory
system.mem_ctrls.num_reads::cpu0.data               3                       # Number of read requests responded to by this memory
system.mem_ctrls.num_reads::cpu2.inst               4                       # Number of read requests responded to by this memory
system.mem_ctrls.num_reads::cpu2.data               4                       # Number of read requests responded to by this memory
system.mem_ctrls.num_reads::total              103730                       # Number of read requests responded to by this memory
system.mem_ctrls.num_writes::writebacks         27111                       # Number of write requests responded to by this memory
system.mem_ctrls.num_writes::realview.ide          128                       # Number of write requests responded to by this memory
system.mem_ctrls.num_writes::total              27239                       # Number of write requests responded to by this memory
system.mem_ctrls.bw_read::switch_cpus0.dtb.walker       180726                       # Total read bandwidth from this memory (bytes/s)
system.mem_ctrls.bw_read::switch_cpus0.itb.walker        58090                       # Total read bandwidth from this memory (bytes/s)
system.mem_ctrls.bw_read::switch_cpus0.inst      1916981                       # Total read bandwidth from this memory (bytes/s)
system.mem_ctrls.bw_read::switch_cpus0.data      9175047                       # Total read bandwidth from this memory (bytes/s)
system.mem_ctrls.bw_read::switch_cpus1.dtb.walker        41954                       # Total read bandwidth from this memory (bytes/s)
system.mem_ctrls.bw_read::switch_cpus1.itb.walker        41954                       # Total read bandwidth from this memory (bytes/s)
system.mem_ctrls.bw_read::switch_cpus1.inst       887491                       # Total read bandwidth from this memory (bytes/s)
system.mem_ctrls.bw_read::switch_cpus1.data      7151567                       # Total read bandwidth from this memory (bytes/s)
system.mem_ctrls.bw_read::switch_cpus2.dtb.walker        83908                       # Total read bandwidth from this memory (bytes/s)
system.mem_ctrls.bw_read::switch_cpus2.itb.walker        19363                       # Total read bandwidth from this memory (bytes/s)
system.mem_ctrls.bw_read::switch_cpus2.inst      5270085                       # Total read bandwidth from this memory (bytes/s)
system.mem_ctrls.bw_read::switch_cpus2.data     25911520                       # Total read bandwidth from this memory (bytes/s)
system.mem_ctrls.bw_read::switch_cpus3.dtb.walker        38727                       # Total read bandwidth from this memory (bytes/s)
system.mem_ctrls.bw_read::switch_cpus3.itb.walker        12909                       # Total read bandwidth from this memory (bytes/s)
system.mem_ctrls.bw_read::switch_cpus3.inst       406632                       # Total read bandwidth from this memory (bytes/s)
system.mem_ctrls.bw_read::switch_cpus3.data      6951478                       # Total read bandwidth from this memory (bytes/s)
system.mem_ctrls.bw_read::switch_cpus4.dtb.walker        22591                       # Total read bandwidth from this memory (bytes/s)
system.mem_ctrls.bw_read::switch_cpus4.itb.walker        16136                       # Total read bandwidth from this memory (bytes/s)
system.mem_ctrls.bw_read::switch_cpus4.inst       354997                       # Total read bandwidth from this memory (bytes/s)
system.mem_ctrls.bw_read::switch_cpus4.data      6212440                       # Total read bandwidth from this memory (bytes/s)
system.mem_ctrls.bw_read::switch_cpus5.dtb.walker       200089                       # Total read bandwidth from this memory (bytes/s)
system.mem_ctrls.bw_read::switch_cpus5.itb.walker       148453                       # Total read bandwidth from this memory (bytes/s)
system.mem_ctrls.bw_read::switch_cpus5.inst      1858891                       # Total read bandwidth from this memory (bytes/s)
system.mem_ctrls.bw_read::switch_cpus5.data     13144554                       # Total read bandwidth from this memory (bytes/s)
system.mem_ctrls.bw_read::switch_cpus6.dtb.walker        93590                       # Total read bandwidth from this memory (bytes/s)
system.mem_ctrls.bw_read::switch_cpus6.itb.walker       154908                       # Total read bandwidth from this memory (bytes/s)
system.mem_ctrls.bw_read::switch_cpus6.inst      2601156                       # Total read bandwidth from this memory (bytes/s)
system.mem_ctrls.bw_read::switch_cpus6.data     15413304                       # Total read bandwidth from this memory (bytes/s)
system.mem_ctrls.bw_read::switch_cpus7.dtb.walker       106499                       # Total read bandwidth from this memory (bytes/s)
system.mem_ctrls.bw_read::switch_cpus7.itb.walker       109726                       # Total read bandwidth from this memory (bytes/s)
system.mem_ctrls.bw_read::switch_cpus7.inst      3362785                       # Total read bandwidth from this memory (bytes/s)
system.mem_ctrls.bw_read::switch_cpus7.data     14238589                       # Total read bandwidth from this memory (bytes/s)
system.mem_ctrls.bw_read::l2.prefetcher     218526191                       # Total read bandwidth from this memory (bytes/s)
system.mem_ctrls.bw_read::cpu0.inst             12909                       # Total read bandwidth from this memory (bytes/s)
system.mem_ctrls.bw_read::cpu0.data              9682                       # Total read bandwidth from this memory (bytes/s)
system.mem_ctrls.bw_read::cpu2.inst             12909                       # Total read bandwidth from this memory (bytes/s)
system.mem_ctrls.bw_read::cpu2.data             12909                       # Total read bandwidth from this memory (bytes/s)
system.mem_ctrls.bw_read::total             334761741                       # Total read bandwidth from this memory (bytes/s)
system.mem_ctrls.bw_inst_read::switch_cpus0.inst      1916981                       # Instruction read bandwidth from this memory (bytes/s)
system.mem_ctrls.bw_inst_read::switch_cpus1.inst       887491                       # Instruction read bandwidth from this memory (bytes/s)
system.mem_ctrls.bw_inst_read::switch_cpus2.inst      5270085                       # Instruction read bandwidth from this memory (bytes/s)
system.mem_ctrls.bw_inst_read::switch_cpus3.inst       406632                       # Instruction read bandwidth from this memory (bytes/s)
system.mem_ctrls.bw_inst_read::switch_cpus4.inst       354997                       # Instruction read bandwidth from this memory (bytes/s)
system.mem_ctrls.bw_inst_read::switch_cpus5.inst      1858891                       # Instruction read bandwidth from this memory (bytes/s)
system.mem_ctrls.bw_inst_read::switch_cpus6.inst      2601156                       # Instruction read bandwidth from this memory (bytes/s)
system.mem_ctrls.bw_inst_read::switch_cpus7.inst      3362785                       # Instruction read bandwidth from this memory (bytes/s)
system.mem_ctrls.bw_inst_read::cpu0.inst        12909                       # Instruction read bandwidth from this memory (bytes/s)
system.mem_ctrls.bw_inst_read::cpu2.inst        12909                       # Instruction read bandwidth from this memory (bytes/s)
system.mem_ctrls.bw_inst_read::total         16684838                       # Instruction read bandwidth from this memory (bytes/s)
system.mem_ctrls.bw_write::writebacks        87493739                       # Write bandwidth from this memory (bytes/s)
system.mem_ctrls.bw_write::realview.ide        413087                       # Write bandwidth from this memory (bytes/s)
system.mem_ctrls.bw_write::total             87906826                       # Write bandwidth from this memory (bytes/s)
system.mem_ctrls.bw_total::writebacks        87493739                       # Total bandwidth to/from this memory (bytes/s)
system.mem_ctrls.bw_total::switch_cpus0.dtb.walker       180726                       # Total bandwidth to/from this memory (bytes/s)
system.mem_ctrls.bw_total::switch_cpus0.itb.walker        58090                       # Total bandwidth to/from this memory (bytes/s)
system.mem_ctrls.bw_total::switch_cpus0.inst      1916981                       # Total bandwidth to/from this memory (bytes/s)
system.mem_ctrls.bw_total::switch_cpus0.data      9175047                       # Total bandwidth to/from this memory (bytes/s)
system.mem_ctrls.bw_total::switch_cpus1.dtb.walker        41954                       # Total bandwidth to/from this memory (bytes/s)
system.mem_ctrls.bw_total::switch_cpus1.itb.walker        41954                       # Total bandwidth to/from this memory (bytes/s)
system.mem_ctrls.bw_total::switch_cpus1.inst       887491                       # Total bandwidth to/from this memory (bytes/s)
system.mem_ctrls.bw_total::switch_cpus1.data      7151567                       # Total bandwidth to/from this memory (bytes/s)
system.mem_ctrls.bw_total::switch_cpus2.dtb.walker        83908                       # Total bandwidth to/from this memory (bytes/s)
system.mem_ctrls.bw_total::switch_cpus2.itb.walker        19363                       # Total bandwidth to/from this memory (bytes/s)
system.mem_ctrls.bw_total::switch_cpus2.inst      5270085                       # Total bandwidth to/from this memory (bytes/s)
system.mem_ctrls.bw_total::switch_cpus2.data     25911520                       # Total bandwidth to/from this memory (bytes/s)
system.mem_ctrls.bw_total::switch_cpus3.dtb.walker        38727                       # Total bandwidth to/from this memory (bytes/s)
system.mem_ctrls.bw_total::switch_cpus3.itb.walker        12909                       # Total bandwidth to/from this memory (bytes/s)
system.mem_ctrls.bw_total::switch_cpus3.inst       406632                       # Total bandwidth to/from this memory (bytes/s)
system.mem_ctrls.bw_total::switch_cpus3.data      6951478                       # Total bandwidth to/from this memory (bytes/s)
system.mem_ctrls.bw_total::switch_cpus4.dtb.walker        22591                       # Total bandwidth to/from this memory (bytes/s)
system.mem_ctrls.bw_total::switch_cpus4.itb.walker        16136                       # Total bandwidth to/from this memory (bytes/s)
system.mem_ctrls.bw_total::switch_cpus4.inst       354997                       # Total bandwidth to/from this memory (bytes/s)
system.mem_ctrls.bw_total::switch_cpus4.data      6212440                       # Total bandwidth to/from this memory (bytes/s)
system.mem_ctrls.bw_total::switch_cpus5.dtb.walker       200089                       # Total bandwidth to/from this memory (bytes/s)
system.mem_ctrls.bw_total::switch_cpus5.itb.walker       148453                       # Total bandwidth to/from this memory (bytes/s)
system.mem_ctrls.bw_total::switch_cpus5.inst      1858891                       # Total bandwidth to/from this memory (bytes/s)
system.mem_ctrls.bw_total::switch_cpus5.data     13144554                       # Total bandwidth to/from this memory (bytes/s)
system.mem_ctrls.bw_total::switch_cpus6.dtb.walker        93590                       # Total bandwidth to/from this memory (bytes/s)
system.mem_ctrls.bw_total::switch_cpus6.itb.walker       154908                       # Total bandwidth to/from this memory (bytes/s)
system.mem_ctrls.bw_total::switch_cpus6.inst      2601156                       # Total bandwidth to/from this memory (bytes/s)
system.mem_ctrls.bw_total::switch_cpus6.data     15413304                       # Total bandwidth to/from this memory (bytes/s)
system.mem_ctrls.bw_total::switch_cpus7.dtb.walker       106499                       # Total bandwidth to/from this memory (bytes/s)
system.mem_ctrls.bw_total::switch_cpus7.itb.walker       109726                       # Total bandwidth to/from this memory (bytes/s)
system.mem_ctrls.bw_total::switch_cpus7.inst      3362785                       # Total bandwidth to/from this memory (bytes/s)
system.mem_ctrls.bw_total::switch_cpus7.data     14238589                       # Total bandwidth to/from this memory (bytes/s)
system.mem_ctrls.bw_total::realview.ide        413087                       # Total bandwidth to/from this memory (bytes/s)
system.mem_ctrls.bw_total::l2.prefetcher    218526191                       # Total bandwidth to/from this memory (bytes/s)
system.mem_ctrls.bw_total::cpu0.inst            12909                       # Total bandwidth to/from this memory (bytes/s)
system.mem_ctrls.bw_total::cpu0.data             9682                       # Total bandwidth to/from this memory (bytes/s)
system.mem_ctrls.bw_total::cpu2.inst            12909                       # Total bandwidth to/from this memory (bytes/s)
system.mem_ctrls.bw_total::cpu2.data            12909                       # Total bandwidth to/from this memory (bytes/s)
system.mem_ctrls.bw_total::total            422668567                       # Total bandwidth to/from this memory (bytes/s)
system.mem_ctrls.readReqs                      103716                       # Number of read requests accepted
system.mem_ctrls.writeReqs                      27239                       # Number of write requests accepted
system.mem_ctrls.readBursts                    103716                       # Number of DRAM read bursts, including those serviced by the write queue
system.mem_ctrls.writeBursts                    27239                       # Number of DRAM write bursts, including those merged in the write queue
system.mem_ctrls.bytesReadDRAM                6615872                       # Total number of bytes read from DRAM
system.mem_ctrls.bytesReadWrQ                   21888                       # Total number of bytes read from write queue
system.mem_ctrls.bytesWritten                 1741760                       # Total number of bytes written to DRAM
system.mem_ctrls.bytesReadSys                 6637824                       # Total read bytes from the system interface side
system.mem_ctrls.bytesWrittenSys              1743296                       # Total written bytes from the system interface side
system.mem_ctrls.servicedByWrQ                    342                       # Number of DRAM read bursts serviced by the write queue
system.mem_ctrls.mergedWrBursts                     0                       # Number of DRAM write bursts merged with an existing one
system.mem_ctrls.neitherReadNorWriteReqs         6869                       # Number of requests that are neither read nor write
system.mem_ctrls.perBankRdBursts::0              4130                       # Per bank write bursts
system.mem_ctrls.perBankRdBursts::1              4696                       # Per bank write bursts
system.mem_ctrls.perBankRdBursts::2              9627                       # Per bank write bursts
system.mem_ctrls.perBankRdBursts::3              8187                       # Per bank write bursts
system.mem_ctrls.perBankRdBursts::4              8924                       # Per bank write bursts
system.mem_ctrls.perBankRdBursts::5              8827                       # Per bank write bursts
system.mem_ctrls.perBankRdBursts::6              7248                       # Per bank write bursts
system.mem_ctrls.perBankRdBursts::7              8820                       # Per bank write bursts
system.mem_ctrls.perBankRdBursts::8              6783                       # Per bank write bursts
system.mem_ctrls.perBankRdBursts::9              7278                       # Per bank write bursts
system.mem_ctrls.perBankRdBursts::10             6075                       # Per bank write bursts
system.mem_ctrls.perBankRdBursts::11             5706                       # Per bank write bursts
system.mem_ctrls.perBankRdBursts::12             3916                       # Per bank write bursts
system.mem_ctrls.perBankRdBursts::13             3262                       # Per bank write bursts
system.mem_ctrls.perBankRdBursts::14             4382                       # Per bank write bursts
system.mem_ctrls.perBankRdBursts::15             5512                       # Per bank write bursts
system.mem_ctrls.perBankWrBursts::0              1138                       # Per bank write bursts
system.mem_ctrls.perBankWrBursts::1              1125                       # Per bank write bursts
system.mem_ctrls.perBankWrBursts::2              2553                       # Per bank write bursts
system.mem_ctrls.perBankWrBursts::3              1937                       # Per bank write bursts
system.mem_ctrls.perBankWrBursts::4              2502                       # Per bank write bursts
system.mem_ctrls.perBankWrBursts::5              2872                       # Per bank write bursts
system.mem_ctrls.perBankWrBursts::6              1893                       # Per bank write bursts
system.mem_ctrls.perBankWrBursts::7              2394                       # Per bank write bursts
system.mem_ctrls.perBankWrBursts::8              1538                       # Per bank write bursts
system.mem_ctrls.perBankWrBursts::9              1512                       # Per bank write bursts
system.mem_ctrls.perBankWrBursts::10             1824                       # Per bank write bursts
system.mem_ctrls.perBankWrBursts::11             1610                       # Per bank write bursts
system.mem_ctrls.perBankWrBursts::12              949                       # Per bank write bursts
system.mem_ctrls.perBankWrBursts::13              627                       # Per bank write bursts
system.mem_ctrls.perBankWrBursts::14             1187                       # Per bank write bursts
system.mem_ctrls.perBankWrBursts::15             1554                       # Per bank write bursts
system.mem_ctrls.numRdRetry                         0                       # Number of times read queue was full causing retry
system.mem_ctrls.numWrRetry                         0                       # Number of times write queue was full causing retry
system.mem_ctrls.totGap                   19831152500                       # Total gap between requests
system.mem_ctrls.readPktSize::0                     0                       # Read request sizes (log2)
system.mem_ctrls.readPktSize::1                     0                       # Read request sizes (log2)
system.mem_ctrls.readPktSize::2                     0                       # Read request sizes (log2)
system.mem_ctrls.readPktSize::3                     0                       # Read request sizes (log2)
system.mem_ctrls.readPktSize::4                     0                       # Read request sizes (log2)
system.mem_ctrls.readPktSize::5                     0                       # Read request sizes (log2)
system.mem_ctrls.readPktSize::6                103716                       # Read request sizes (log2)
system.mem_ctrls.writePktSize::0                    0                       # Write request sizes (log2)
system.mem_ctrls.writePktSize::1                    0                       # Write request sizes (log2)
system.mem_ctrls.writePktSize::2                    0                       # Write request sizes (log2)
system.mem_ctrls.writePktSize::3                    0                       # Write request sizes (log2)
system.mem_ctrls.writePktSize::4                    0                       # Write request sizes (log2)
system.mem_ctrls.writePktSize::5                    0                       # Write request sizes (log2)
system.mem_ctrls.writePktSize::6                27239                       # Write request sizes (log2)
system.mem_ctrls.rdQLenPdf::0                   36902                       # What read queue length does an incoming req see
system.mem_ctrls.rdQLenPdf::1                   27249                       # What read queue length does an incoming req see
system.mem_ctrls.rdQLenPdf::2                   10890                       # What read queue length does an incoming req see
system.mem_ctrls.rdQLenPdf::3                    7185                       # What read queue length does an incoming req see
system.mem_ctrls.rdQLenPdf::4                    4925                       # What read queue length does an incoming req see
system.mem_ctrls.rdQLenPdf::5                    3935                       # What read queue length does an incoming req see
system.mem_ctrls.rdQLenPdf::6                    3275                       # What read queue length does an incoming req see
system.mem_ctrls.rdQLenPdf::7                    2808                       # What read queue length does an incoming req see
system.mem_ctrls.rdQLenPdf::8                    2447                       # What read queue length does an incoming req see
system.mem_ctrls.rdQLenPdf::9                    1294                       # What read queue length does an incoming req see
system.mem_ctrls.rdQLenPdf::10                    874                       # What read queue length does an incoming req see
system.mem_ctrls.rdQLenPdf::11                    679                       # What read queue length does an incoming req see
system.mem_ctrls.rdQLenPdf::12                    377                       # What read queue length does an incoming req see
system.mem_ctrls.rdQLenPdf::13                    242                       # What read queue length does an incoming req see
system.mem_ctrls.rdQLenPdf::14                    167                       # What read queue length does an incoming req see
system.mem_ctrls.rdQLenPdf::15                    125                       # What read queue length does an incoming req see
system.mem_ctrls.rdQLenPdf::16                      0                       # What read queue length does an incoming req see
system.mem_ctrls.rdQLenPdf::17                      0                       # What read queue length does an incoming req see
system.mem_ctrls.rdQLenPdf::18                      0                       # What read queue length does an incoming req see
system.mem_ctrls.rdQLenPdf::19                      0                       # What read queue length does an incoming req see
system.mem_ctrls.rdQLenPdf::20                      0                       # What read queue length does an incoming req see
system.mem_ctrls.rdQLenPdf::21                      0                       # What read queue length does an incoming req see
system.mem_ctrls.rdQLenPdf::22                      0                       # What read queue length does an incoming req see
system.mem_ctrls.rdQLenPdf::23                      0                       # What read queue length does an incoming req see
system.mem_ctrls.rdQLenPdf::24                      0                       # What read queue length does an incoming req see
system.mem_ctrls.rdQLenPdf::25                      0                       # What read queue length does an incoming req see
system.mem_ctrls.rdQLenPdf::26                      0                       # What read queue length does an incoming req see
system.mem_ctrls.rdQLenPdf::27                      0                       # What read queue length does an incoming req see
system.mem_ctrls.rdQLenPdf::28                      0                       # What read queue length does an incoming req see
system.mem_ctrls.rdQLenPdf::29                      0                       # What read queue length does an incoming req see
system.mem_ctrls.rdQLenPdf::30                      0                       # What read queue length does an incoming req see
system.mem_ctrls.rdQLenPdf::31                      0                       # What read queue length does an incoming req see
system.mem_ctrls.wrQLenPdf::0                       1                       # What write queue length does an incoming req see
system.mem_ctrls.wrQLenPdf::1                       1                       # What write queue length does an incoming req see
system.mem_ctrls.wrQLenPdf::2                       1                       # What write queue length does an incoming req see
system.mem_ctrls.wrQLenPdf::3                       1                       # What write queue length does an incoming req see
system.mem_ctrls.wrQLenPdf::4                       1                       # What write queue length does an incoming req see
system.mem_ctrls.wrQLenPdf::5                       1                       # What write queue length does an incoming req see
system.mem_ctrls.wrQLenPdf::6                       1                       # What write queue length does an incoming req see
system.mem_ctrls.wrQLenPdf::7                       1                       # What write queue length does an incoming req see
system.mem_ctrls.wrQLenPdf::8                       1                       # What write queue length does an incoming req see
system.mem_ctrls.wrQLenPdf::9                       1                       # What write queue length does an incoming req see
system.mem_ctrls.wrQLenPdf::10                      1                       # What write queue length does an incoming req see
system.mem_ctrls.wrQLenPdf::11                      1                       # What write queue length does an incoming req see
system.mem_ctrls.wrQLenPdf::12                      1                       # What write queue length does an incoming req see
system.mem_ctrls.wrQLenPdf::13                      1                       # What write queue length does an incoming req see
system.mem_ctrls.wrQLenPdf::14                      1                       # What write queue length does an incoming req see
system.mem_ctrls.wrQLenPdf::15                    566                       # What write queue length does an incoming req see
system.mem_ctrls.wrQLenPdf::16                    591                       # What write queue length does an incoming req see
system.mem_ctrls.wrQLenPdf::17                   1041                       # What write queue length does an incoming req see
system.mem_ctrls.wrQLenPdf::18                   1267                       # What write queue length does an incoming req see
system.mem_ctrls.wrQLenPdf::19                   1409                       # What write queue length does an incoming req see
system.mem_ctrls.wrQLenPdf::20                   1510                       # What write queue length does an incoming req see
system.mem_ctrls.wrQLenPdf::21                   1587                       # What write queue length does an incoming req see
system.mem_ctrls.wrQLenPdf::22                   1629                       # What write queue length does an incoming req see
system.mem_ctrls.wrQLenPdf::23                   1692                       # What write queue length does an incoming req see
system.mem_ctrls.wrQLenPdf::24                   1717                       # What write queue length does an incoming req see
system.mem_ctrls.wrQLenPdf::25                   1749                       # What write queue length does an incoming req see
system.mem_ctrls.wrQLenPdf::26                   1777                       # What write queue length does an incoming req see
system.mem_ctrls.wrQLenPdf::27                   1780                       # What write queue length does an incoming req see
system.mem_ctrls.wrQLenPdf::28                   1845                       # What write queue length does an incoming req see
system.mem_ctrls.wrQLenPdf::29                   1759                       # What write queue length does an incoming req see
system.mem_ctrls.wrQLenPdf::30                   1741                       # What write queue length does an incoming req see
system.mem_ctrls.wrQLenPdf::31                   1737                       # What write queue length does an incoming req see
system.mem_ctrls.wrQLenPdf::32                   1660                       # What write queue length does an incoming req see
system.mem_ctrls.wrQLenPdf::33                     58                       # What write queue length does an incoming req see
system.mem_ctrls.wrQLenPdf::34                     33                       # What write queue length does an incoming req see
system.mem_ctrls.wrQLenPdf::35                     17                       # What write queue length does an incoming req see
system.mem_ctrls.wrQLenPdf::36                      7                       # What write queue length does an incoming req see
system.mem_ctrls.wrQLenPdf::37                      7                       # What write queue length does an incoming req see
system.mem_ctrls.wrQLenPdf::38                      7                       # What write queue length does an incoming req see
system.mem_ctrls.wrQLenPdf::39                      5                       # What write queue length does an incoming req see
system.mem_ctrls.wrQLenPdf::40                      4                       # What write queue length does an incoming req see
system.mem_ctrls.wrQLenPdf::41                      4                       # What write queue length does an incoming req see
system.mem_ctrls.wrQLenPdf::42                      4                       # What write queue length does an incoming req see
system.mem_ctrls.wrQLenPdf::43                      3                       # What write queue length does an incoming req see
system.mem_ctrls.wrQLenPdf::44                      3                       # What write queue length does an incoming req see
system.mem_ctrls.wrQLenPdf::45                      2                       # What write queue length does an incoming req see
system.mem_ctrls.wrQLenPdf::46                      2                       # What write queue length does an incoming req see
system.mem_ctrls.wrQLenPdf::47                      2                       # What write queue length does an incoming req see
system.mem_ctrls.wrQLenPdf::48                      1                       # What write queue length does an incoming req see
system.mem_ctrls.wrQLenPdf::49                      1                       # What write queue length does an incoming req see
system.mem_ctrls.wrQLenPdf::50                      1                       # What write queue length does an incoming req see
system.mem_ctrls.wrQLenPdf::51                      1                       # What write queue length does an incoming req see
system.mem_ctrls.wrQLenPdf::52                      1                       # What write queue length does an incoming req see
system.mem_ctrls.wrQLenPdf::53                      1                       # What write queue length does an incoming req see
system.mem_ctrls.wrQLenPdf::54                      1                       # What write queue length does an incoming req see
system.mem_ctrls.wrQLenPdf::55                      1                       # What write queue length does an incoming req see
system.mem_ctrls.wrQLenPdf::56                      1                       # What write queue length does an incoming req see
system.mem_ctrls.wrQLenPdf::57                      0                       # What write queue length does an incoming req see
system.mem_ctrls.wrQLenPdf::58                      0                       # What write queue length does an incoming req see
system.mem_ctrls.wrQLenPdf::59                      0                       # What write queue length does an incoming req see
system.mem_ctrls.wrQLenPdf::60                      0                       # What write queue length does an incoming req see
system.mem_ctrls.wrQLenPdf::61                      0                       # What write queue length does an incoming req see
system.mem_ctrls.wrQLenPdf::62                      0                       # What write queue length does an incoming req see
system.mem_ctrls.wrQLenPdf::63                      0                       # What write queue length does an incoming req see
system.mem_ctrls.bytesPerActivate::samples        52456                       # Bytes accessed per row activation
system.mem_ctrls.bytesPerActivate::mean    159.283819                       # Bytes accessed per row activation
system.mem_ctrls.bytesPerActivate::gmean   102.300283                       # Bytes accessed per row activation
system.mem_ctrls.bytesPerActivate::stdev   221.203111                       # Bytes accessed per row activation
system.mem_ctrls.bytesPerActivate::0-127        34194     65.19%     65.19% # Bytes accessed per row activation
system.mem_ctrls.bytesPerActivate::128-255        10683     20.37%     85.55% # Bytes accessed per row activation
system.mem_ctrls.bytesPerActivate::256-383         2413      4.60%     90.15% # Bytes accessed per row activation
system.mem_ctrls.bytesPerActivate::384-511         1065      2.03%     92.18% # Bytes accessed per row activation
system.mem_ctrls.bytesPerActivate::512-639          842      1.61%     93.79% # Bytes accessed per row activation
system.mem_ctrls.bytesPerActivate::640-767          559      1.07%     94.85% # Bytes accessed per row activation
system.mem_ctrls.bytesPerActivate::768-895          331      0.63%     95.48% # Bytes accessed per row activation
system.mem_ctrls.bytesPerActivate::896-1023          235      0.45%     95.93% # Bytes accessed per row activation
system.mem_ctrls.bytesPerActivate::1024-1151         2134      4.07%    100.00% # Bytes accessed per row activation
system.mem_ctrls.bytesPerActivate::total        52456                       # Bytes accessed per row activation
system.mem_ctrls.rdPerTurnAround::samples         1613                       # Reads before turning the bus around for writes
system.mem_ctrls.rdPerTurnAround::mean      64.087415                       # Reads before turning the bus around for writes
system.mem_ctrls.rdPerTurnAround::gmean     44.311980                       # Reads before turning the bus around for writes
system.mem_ctrls.rdPerTurnAround::stdev    458.641536                       # Reads before turning the bus around for writes
system.mem_ctrls.rdPerTurnAround::0-1023         1610     99.81%     99.81% # Reads before turning the bus around for writes
system.mem_ctrls.rdPerTurnAround::1024-2047            2      0.12%     99.94% # Reads before turning the bus around for writes
system.mem_ctrls.rdPerTurnAround::17408-18431            1      0.06%    100.00% # Reads before turning the bus around for writes
system.mem_ctrls.rdPerTurnAround::total          1613                       # Reads before turning the bus around for writes
system.mem_ctrls.wrPerTurnAround::samples         1612                       # Writes before turning the bus around for reads
system.mem_ctrls.wrPerTurnAround::mean      16.877171                       # Writes before turning the bus around for reads
system.mem_ctrls.wrPerTurnAround::gmean     16.828970                       # Writes before turning the bus around for reads
system.mem_ctrls.wrPerTurnAround::stdev      1.361363                       # Writes before turning the bus around for reads
system.mem_ctrls.wrPerTurnAround::16             1007     62.47%     62.47% # Writes before turning the bus around for reads
system.mem_ctrls.wrPerTurnAround::17               17      1.05%     63.52% # Writes before turning the bus around for reads
system.mem_ctrls.wrPerTurnAround::18              473     29.34%     92.87% # Writes before turning the bus around for reads
system.mem_ctrls.wrPerTurnAround::19               71      4.40%     97.27% # Writes before turning the bus around for reads
system.mem_ctrls.wrPerTurnAround::20               23      1.43%     98.70% # Writes before turning the bus around for reads
system.mem_ctrls.wrPerTurnAround::21               10      0.62%     99.32% # Writes before turning the bus around for reads
system.mem_ctrls.wrPerTurnAround::22                6      0.37%     99.69% # Writes before turning the bus around for reads
system.mem_ctrls.wrPerTurnAround::23                1      0.06%     99.75% # Writes before turning the bus around for reads
system.mem_ctrls.wrPerTurnAround::24                1      0.06%     99.81% # Writes before turning the bus around for reads
system.mem_ctrls.wrPerTurnAround::25                1      0.06%     99.88% # Writes before turning the bus around for reads
system.mem_ctrls.wrPerTurnAround::33                1      0.06%     99.94% # Writes before turning the bus around for reads
system.mem_ctrls.wrPerTurnAround::35                1      0.06%    100.00% # Writes before turning the bus around for reads
system.mem_ctrls.wrPerTurnAround::total          1612                       # Writes before turning the bus around for reads
system.mem_ctrls.totQLat                   2979717047                       # Total ticks spent queuing
system.mem_ctrls.totMemAccLat              4917960797                       # Total ticks spent from burst creation until serviced by the DRAM
system.mem_ctrls.totBusLat                  516865000                       # Total ticks spent in databus transfers
system.mem_ctrls.avgQLat                     28824.63                       # Average queueing delay per DRAM burst
system.mem_ctrls.avgBusLat                    4999.95                       # Average bus latency per DRAM burst
system.mem_ctrls.avgMemAccLat                47574.45                       # Average memory access latency per DRAM burst
system.mem_ctrls.avgRdBW                       333.61                       # Average DRAM read bandwidth in MiByte/s
system.mem_ctrls.avgWrBW                        87.83                       # Average achieved write bandwidth in MiByte/s
system.mem_ctrls.avgRdBWSys                    334.72                       # Average system read bandwidth in MiByte/s
system.mem_ctrls.avgWrBWSys                     87.91                       # Average system write bandwidth in MiByte/s
system.mem_ctrls.peakBW                      12800.00                       # Theoretical peak bandwidth in MiByte/s
system.mem_ctrls.busUtil                         3.29                       # Data bus utilization in percentage
system.mem_ctrls.busUtilRead                     2.61                       # Data bus utilization in percentage for reads
system.mem_ctrls.busUtilWrite                    0.69                       # Data bus utilization in percentage for writes
system.mem_ctrls.avgRdQLen                       1.42                       # Average read queue length when enqueuing
system.mem_ctrls.avgWrQLen                      24.05                       # Average write queue length when enqueuing
system.mem_ctrls.readRowHits                    70036                       # Number of row buffer hits during reads
system.mem_ctrls.writeRowHits                    8088                       # Number of row buffer hits during writes
system.mem_ctrls.readRowHitRate                 67.75                       # Row buffer hit rate for reads
system.mem_ctrls.writeRowHitRate                29.69                       # Row buffer hit rate for writes
system.mem_ctrls.avgGap                     151434.86                       # Average gap between requests
system.mem_ctrls.pageHitRate                    59.81                       # Row buffer hit rate, read and write combined
system.mem_ctrls.memoryStateTime::IDLE     3633329762                       # Time in different power states
system.mem_ctrls.memoryStateTime::REF       661960000                       # Time in different power states
system.mem_ctrls.memoryStateTime::PRE_PDN            0                       # Time in different power states
system.mem_ctrls.memoryStateTime::ACT     15528776488                       # Time in different power states
system.mem_ctrls.memoryStateTime::ACT_PDN            0                       # Time in different power states
system.mem_ctrls.actEnergy::0               240649920                       # Energy for activate commands per rank (pJ)
system.mem_ctrls.actEnergy::1               155667960                       # Energy for activate commands per rank (pJ)
system.mem_ctrls.preEnergy::0               131307000                       # Energy for precharge commands per rank (pJ)
system.mem_ctrls.preEnergy::1                84937875                       # Energy for precharge commands per rank (pJ)
system.mem_ctrls.readEnergy::0              471291600                       # Energy for read commands per rank (pJ)
system.mem_ctrls.readEnergy::1              334401600                       # Energy for read commands per rank (pJ)
system.mem_ctrls.writeEnergy::0             106246080                       # Energy for write commands per rank (pJ)
system.mem_ctrls.writeEnergy::1              69945120                       # Energy for write commands per rank (pJ)
system.mem_ctrls.refreshEnergy::0          1294793760                       # Energy for refresh commands per rank (pJ)
system.mem_ctrls.refreshEnergy::1          1294793760                       # Energy for refresh commands per rank (pJ)
system.mem_ctrls.actBackEnergy::0         10135294830                       # Energy for active background per rank (pJ)
system.mem_ctrls.actBackEnergy::1          8773119945                       # Energy for active background per rank (pJ)
system.mem_ctrls.preBackEnergy::0          3003822000                       # Energy for precharge background per rank (pJ)
system.mem_ctrls.preBackEnergy::1          4198712250                       # Energy for precharge background per rank (pJ)
system.mem_ctrls.totalEnergy::0           15383405190                       # Total energy per rank (pJ)
system.mem_ctrls.totalEnergy::1           14911578510                       # Total energy per rank (pJ)
system.mem_ctrls.averagePower::0           775.996996                       # Core power per rank (mW)
system.mem_ctrls.averagePower::1           752.196278                       # Core power per rank (mW)
system.cpu_voltage_domain.voltage                   1                       # Voltage in Volts
system.cpu_clk_domain.clock                       500                       # Clock period in ticks
system.tol2bus.trans_dist::ReadReq             733129                       # Transaction distribution
system.tol2bus.trans_dist::ReadResp            733121                       # Transaction distribution
system.tol2bus.trans_dist::ReadRespWithInvalidate            7                       # Transaction distribution
system.tol2bus.trans_dist::WriteReq               874                       # Transaction distribution
system.tol2bus.trans_dist::WriteResp              874                       # Transaction distribution
system.tol2bus.trans_dist::Writeback           167176                       # Transaction distribution
system.tol2bus.trans_dist::HardPFReq           118820                       # Transaction distribution
system.tol2bus.trans_dist::WriteInvalidateReq          128                       # Transaction distribution
system.tol2bus.trans_dist::UpgradeReq           19044                       # Transaction distribution
system.tol2bus.trans_dist::SCUpgradeReq          7398                       # Transaction distribution
system.tol2bus.trans_dist::UpgradeResp          26442                       # Transaction distribution
system.tol2bus.trans_dist::SCUpgradeFailReq          161                       # Transaction distribution
system.tol2bus.trans_dist::UpgradeFailResp          161                       # Transaction distribution
system.tol2bus.trans_dist::ReadExReq            64841                       # Transaction distribution
system.tol2bus.trans_dist::ReadExResp           64841                       # Transaction distribution
system.tol2bus.pkt_count_system.cpu0.icache.mem_side::system.l2.cpu_side        34770                       # Packet count per connected master and slave (bytes)
system.tol2bus.pkt_count_system.cpu0.dcache.mem_side::system.l2.cpu_side       120086                       # Packet count per connected master and slave (bytes)
system.tol2bus.pkt_count_system.cpu0.itb.walker.dma::system.l2.cpu_side         3125                       # Packet count per connected master and slave (bytes)
system.tol2bus.pkt_count_system.cpu0.dtb.walker.dma::system.l2.cpu_side        26003                       # Packet count per connected master and slave (bytes)
system.tol2bus.pkt_count_system.cpu1.icache.mem_side::system.l2.cpu_side        37880                       # Packet count per connected master and slave (bytes)
system.tol2bus.pkt_count_system.cpu1.dcache.mem_side::system.l2.cpu_side        82486                       # Packet count per connected master and slave (bytes)
system.tol2bus.pkt_count_system.cpu1.itb.walker.dma::system.l2.cpu_side         3217                       # Packet count per connected master and slave (bytes)
system.tol2bus.pkt_count_system.cpu1.dtb.walker.dma::system.l2.cpu_side        24762                       # Packet count per connected master and slave (bytes)
system.tol2bus.pkt_count_system.cpu2.icache.mem_side::system.l2.cpu_side       196778                       # Packet count per connected master and slave (bytes)
system.tol2bus.pkt_count_system.cpu2.dcache.mem_side::system.l2.cpu_side       195589                       # Packet count per connected master and slave (bytes)
system.tol2bus.pkt_count_system.cpu2.itb.walker.dma::system.l2.cpu_side         5870                       # Packet count per connected master and slave (bytes)
system.tol2bus.pkt_count_system.cpu2.dtb.walker.dma::system.l2.cpu_side        42161                       # Packet count per connected master and slave (bytes)
system.tol2bus.pkt_count_system.cpu3.icache.mem_side::system.l2.cpu_side        17602                       # Packet count per connected master and slave (bytes)
system.tol2bus.pkt_count_system.cpu3.dcache.mem_side::system.l2.cpu_side        65372                       # Packet count per connected master and slave (bytes)
system.tol2bus.pkt_count_system.cpu3.itb.walker.dma::system.l2.cpu_side          941                       # Packet count per connected master and slave (bytes)
system.tol2bus.pkt_count_system.cpu3.dtb.walker.dma::system.l2.cpu_side        21301                       # Packet count per connected master and slave (bytes)
system.tol2bus.pkt_count_system.cpu4.icache.mem_side::system.l2.cpu_side        16436                       # Packet count per connected master and slave (bytes)
system.tol2bus.pkt_count_system.cpu4.dcache.mem_side::system.l2.cpu_side        63452                       # Packet count per connected master and slave (bytes)
system.tol2bus.pkt_count_system.cpu4.itb.walker.dma::system.l2.cpu_side          977                       # Packet count per connected master and slave (bytes)
system.tol2bus.pkt_count_system.cpu4.dtb.walker.dma::system.l2.cpu_side        21348                       # Packet count per connected master and slave (bytes)
system.tol2bus.pkt_count_system.cpu5.icache.mem_side::system.l2.cpu_side        53783                       # Packet count per connected master and slave (bytes)
system.tol2bus.pkt_count_system.cpu5.dcache.mem_side::system.l2.cpu_side       105206                       # Packet count per connected master and slave (bytes)
system.tol2bus.pkt_count_system.cpu5.itb.walker.dma::system.l2.cpu_side         3131                       # Packet count per connected master and slave (bytes)
system.tol2bus.pkt_count_system.cpu5.dtb.walker.dma::system.l2.cpu_side        25388                       # Packet count per connected master and slave (bytes)
system.tol2bus.pkt_count_system.cpu6.icache.mem_side::system.l2.cpu_side        94387                       # Packet count per connected master and slave (bytes)
system.tol2bus.pkt_count_system.cpu6.dcache.mem_side::system.l2.cpu_side       172379                       # Packet count per connected master and slave (bytes)
system.tol2bus.pkt_count_system.cpu6.itb.walker.dma::system.l2.cpu_side         5830                       # Packet count per connected master and slave (bytes)
system.tol2bus.pkt_count_system.cpu6.dtb.walker.dma::system.l2.cpu_side        30725                       # Packet count per connected master and slave (bytes)
system.tol2bus.pkt_count_system.cpu7.icache.mem_side::system.l2.cpu_side        85789                       # Packet count per connected master and slave (bytes)
system.tol2bus.pkt_count_system.cpu7.dcache.mem_side::system.l2.cpu_side       123688                       # Packet count per connected master and slave (bytes)
system.tol2bus.pkt_count_system.cpu7.itb.walker.dma::system.l2.cpu_side         5519                       # Packet count per connected master and slave (bytes)
system.tol2bus.pkt_count_system.cpu7.dtb.walker.dma::system.l2.cpu_side        30725                       # Packet count per connected master and slave (bytes)
system.tol2bus.pkt_count::total               1716706                       # Packet count per connected master and slave (bytes)
system.tol2bus.pkt_size_system.cpu0.icache.mem_side::system.l2.cpu_side      1112640                       # Cumulative packet size per connected master and slave (bytes)
system.tol2bus.pkt_size_system.cpu0.dcache.mem_side::system.l2.cpu_side      4214283                       # Cumulative packet size per connected master and slave (bytes)
system.tol2bus.pkt_size_system.cpu0.itb.walker.dma::system.l2.cpu_side         6112                       # Cumulative packet size per connected master and slave (bytes)
system.tol2bus.pkt_size_system.cpu0.dtb.walker.dma::system.l2.cpu_side        50820                       # Cumulative packet size per connected master and slave (bytes)
system.tol2bus.pkt_size_system.cpu1.icache.mem_side::system.l2.cpu_side      1212096                       # Cumulative packet size per connected master and slave (bytes)
system.tol2bus.pkt_size_system.cpu1.dcache.mem_side::system.l2.cpu_side      2650024                       # Cumulative packet size per connected master and slave (bytes)
system.tol2bus.pkt_size_system.cpu1.itb.walker.dma::system.l2.cpu_side         4120                       # Cumulative packet size per connected master and slave (bytes)
system.tol2bus.pkt_size_system.cpu1.dtb.walker.dma::system.l2.cpu_side        45972                       # Cumulative packet size per connected master and slave (bytes)
system.tol2bus.pkt_size_system.cpu2.icache.mem_side::system.l2.cpu_side      6296768                       # Cumulative packet size per connected master and slave (bytes)
system.tol2bus.pkt_size_system.cpu2.dcache.mem_side::system.l2.cpu_side      6956496                       # Cumulative packet size per connected master and slave (bytes)
system.tol2bus.pkt_size_system.cpu2.itb.walker.dma::system.l2.cpu_side         8148                       # Cumulative packet size per connected master and slave (bytes)
system.tol2bus.pkt_size_system.cpu2.dtb.walker.dma::system.l2.cpu_side        68472                       # Cumulative packet size per connected master and slave (bytes)
system.tol2bus.pkt_size_system.cpu3.icache.mem_side::system.l2.cpu_side       563264                       # Cumulative packet size per connected master and slave (bytes)
system.tol2bus.pkt_size_system.cpu3.dcache.mem_side::system.l2.cpu_side      2111804                       # Cumulative packet size per connected master and slave (bytes)
system.tol2bus.pkt_size_system.cpu3.itb.walker.dma::system.l2.cpu_side         1832                       # Cumulative packet size per connected master and slave (bytes)
system.tol2bus.pkt_size_system.cpu3.dtb.walker.dma::system.l2.cpu_side        42492                       # Cumulative packet size per connected master and slave (bytes)
system.tol2bus.pkt_size_system.cpu4.icache.mem_side::system.l2.cpu_side       525952                       # Cumulative packet size per connected master and slave (bytes)
system.tol2bus.pkt_size_system.cpu4.dcache.mem_side::system.l2.cpu_side      2035896                       # Cumulative packet size per connected master and slave (bytes)
system.tol2bus.pkt_size_system.cpu4.itb.walker.dma::system.l2.cpu_side         1888                       # Cumulative packet size per connected master and slave (bytes)
system.tol2bus.pkt_size_system.cpu4.dtb.walker.dma::system.l2.cpu_side        42560                       # Cumulative packet size per connected master and slave (bytes)
system.tol2bus.pkt_size_system.cpu5.icache.mem_side::system.l2.cpu_side      1720960                       # Cumulative packet size per connected master and slave (bytes)
system.tol2bus.pkt_size_system.cpu5.dcache.mem_side::system.l2.cpu_side      3627776                       # Cumulative packet size per connected master and slave (bytes)
system.tol2bus.pkt_size_system.cpu5.itb.walker.dma::system.l2.cpu_side         6220                       # Cumulative packet size per connected master and slave (bytes)
system.tol2bus.pkt_size_system.cpu5.dtb.walker.dma::system.l2.cpu_side        50356                       # Cumulative packet size per connected master and slave (bytes)
system.tol2bus.pkt_size_system.cpu6.icache.mem_side::system.l2.cpu_side      3020352                       # Cumulative packet size per connected master and slave (bytes)
system.tol2bus.pkt_size_system.cpu6.dcache.mem_side::system.l2.cpu_side      6109672                       # Cumulative packet size per connected master and slave (bytes)
system.tol2bus.pkt_size_system.cpu6.itb.walker.dma::system.l2.cpu_side         8592                       # Cumulative packet size per connected master and slave (bytes)
system.tol2bus.pkt_size_system.cpu6.dtb.walker.dma::system.l2.cpu_side        55504                       # Cumulative packet size per connected master and slave (bytes)
system.tol2bus.pkt_size_system.cpu7.icache.mem_side::system.l2.cpu_side      2744896                       # Cumulative packet size per connected master and slave (bytes)
system.tol2bus.pkt_size_system.cpu7.dcache.mem_side::system.l2.cpu_side      4228708                       # Cumulative packet size per connected master and slave (bytes)
system.tol2bus.pkt_size_system.cpu7.itb.walker.dma::system.l2.cpu_side         7460                       # Cumulative packet size per connected master and slave (bytes)
system.tol2bus.pkt_size_system.cpu7.dtb.walker.dma::system.l2.cpu_side        55248                       # Cumulative packet size per connected master and slave (bytes)
system.tol2bus.pkt_size::total               49587383                       # Cumulative packet size per connected master and slave (bytes)
system.tol2bus.snoops                          220313                       # Total snoops (count)
system.tol2bus.snoop_fanout::samples          1111232                       # Request fanout histogram
system.tol2bus.snoop_fanout::mean           47.107043                       # Request fanout histogram
system.tol2bus.snoop_fanout::stdev           0.309168                       # Request fanout histogram
system.tol2bus.snoop_fanout::underflows             0      0.00%      0.00% # Request fanout histogram
system.tol2bus.snoop_fanout::0                      0      0.00%      0.00% # Request fanout histogram
system.tol2bus.snoop_fanout::1                      0      0.00%      0.00% # Request fanout histogram
system.tol2bus.snoop_fanout::2                      0      0.00%      0.00% # Request fanout histogram
system.tol2bus.snoop_fanout::3                      0      0.00%      0.00% # Request fanout histogram
system.tol2bus.snoop_fanout::4                      0      0.00%      0.00% # Request fanout histogram
system.tol2bus.snoop_fanout::5                      0      0.00%      0.00% # Request fanout histogram
system.tol2bus.snoop_fanout::6                      0      0.00%      0.00% # Request fanout histogram
system.tol2bus.snoop_fanout::7                      0      0.00%      0.00% # Request fanout histogram
system.tol2bus.snoop_fanout::8                      0      0.00%      0.00% # Request fanout histogram
system.tol2bus.snoop_fanout::9                      0      0.00%      0.00% # Request fanout histogram
system.tol2bus.snoop_fanout::10                     0      0.00%      0.00% # Request fanout histogram
system.tol2bus.snoop_fanout::11                     0      0.00%      0.00% # Request fanout histogram
system.tol2bus.snoop_fanout::12                     0      0.00%      0.00% # Request fanout histogram
system.tol2bus.snoop_fanout::13                     0      0.00%      0.00% # Request fanout histogram
system.tol2bus.snoop_fanout::14                     0      0.00%      0.00% # Request fanout histogram
system.tol2bus.snoop_fanout::15                     0      0.00%      0.00% # Request fanout histogram
system.tol2bus.snoop_fanout::16                     0      0.00%      0.00% # Request fanout histogram
system.tol2bus.snoop_fanout::17                     0      0.00%      0.00% # Request fanout histogram
system.tol2bus.snoop_fanout::18                     0      0.00%      0.00% # Request fanout histogram
system.tol2bus.snoop_fanout::19                     0      0.00%      0.00% # Request fanout histogram
system.tol2bus.snoop_fanout::20                     0      0.00%      0.00% # Request fanout histogram
system.tol2bus.snoop_fanout::21                     0      0.00%      0.00% # Request fanout histogram
system.tol2bus.snoop_fanout::22                     0      0.00%      0.00% # Request fanout histogram
system.tol2bus.snoop_fanout::23                     0      0.00%      0.00% # Request fanout histogram
system.tol2bus.snoop_fanout::24                     0      0.00%      0.00% # Request fanout histogram
system.tol2bus.snoop_fanout::25                     0      0.00%      0.00% # Request fanout histogram
system.tol2bus.snoop_fanout::26                     0      0.00%      0.00% # Request fanout histogram
system.tol2bus.snoop_fanout::27                     0      0.00%      0.00% # Request fanout histogram
system.tol2bus.snoop_fanout::28                     0      0.00%      0.00% # Request fanout histogram
system.tol2bus.snoop_fanout::29                     0      0.00%      0.00% # Request fanout histogram
system.tol2bus.snoop_fanout::30                     0      0.00%      0.00% # Request fanout histogram
system.tol2bus.snoop_fanout::31                     0      0.00%      0.00% # Request fanout histogram
system.tol2bus.snoop_fanout::32                     0      0.00%      0.00% # Request fanout histogram
system.tol2bus.snoop_fanout::33                     0      0.00%      0.00% # Request fanout histogram
system.tol2bus.snoop_fanout::34                     0      0.00%      0.00% # Request fanout histogram
system.tol2bus.snoop_fanout::35                     0      0.00%      0.00% # Request fanout histogram
system.tol2bus.snoop_fanout::36                     0      0.00%      0.00% # Request fanout histogram
system.tol2bus.snoop_fanout::37                     0      0.00%      0.00% # Request fanout histogram
system.tol2bus.snoop_fanout::38                     0      0.00%      0.00% # Request fanout histogram
system.tol2bus.snoop_fanout::39                     0      0.00%      0.00% # Request fanout histogram
system.tol2bus.snoop_fanout::40                     0      0.00%      0.00% # Request fanout histogram
system.tol2bus.snoop_fanout::41                     0      0.00%      0.00% # Request fanout histogram
system.tol2bus.snoop_fanout::42                     0      0.00%      0.00% # Request fanout histogram
system.tol2bus.snoop_fanout::43                     0      0.00%      0.00% # Request fanout histogram
system.tol2bus.snoop_fanout::44                     0      0.00%      0.00% # Request fanout histogram
system.tol2bus.snoop_fanout::45                     0      0.00%      0.00% # Request fanout histogram
system.tol2bus.snoop_fanout::46                     0      0.00%      0.00% # Request fanout histogram
system.tol2bus.snoop_fanout::47                992282     89.30%     89.30% # Request fanout histogram
system.tol2bus.snoop_fanout::48                118950     10.70%    100.00% # Request fanout histogram
system.tol2bus.snoop_fanout::overflows              0      0.00%    100.00% # Request fanout histogram
system.tol2bus.snoop_fanout::min_value             47                       # Request fanout histogram
system.tol2bus.snoop_fanout::max_value             48                       # Request fanout histogram
system.tol2bus.snoop_fanout::total            1111232                       # Request fanout histogram
system.tol2bus.reqLayer0.occupancy          665788149                       # Layer occupancy (ticks)
system.tol2bus.reqLayer0.utilization              3.4                       # Layer utilization (%)
system.tol2bus.snoopLayer0.occupancy             3000                       # Layer occupancy (ticks)
system.tol2bus.snoopLayer0.utilization            0.0                       # Layer utilization (%)
system.tol2bus.respLayer0.occupancy          26178883                       # Layer occupancy (ticks)
system.tol2bus.respLayer0.utilization             0.1                       # Layer utilization (%)
system.tol2bus.respLayer1.occupancy          75331016                       # Layer occupancy (ticks)
system.tol2bus.respLayer1.utilization             0.4                       # Layer utilization (%)
system.tol2bus.respLayer2.occupancy           1602242                       # Layer occupancy (ticks)
system.tol2bus.respLayer2.utilization             0.0                       # Layer utilization (%)
system.tol2bus.respLayer3.occupancy          13323706                       # Layer occupancy (ticks)
system.tol2bus.respLayer3.utilization             0.1                       # Layer utilization (%)
system.tol2bus.respLayer6.occupancy          28515267                       # Layer occupancy (ticks)
system.tol2bus.respLayer6.utilization             0.1                       # Layer utilization (%)
system.tol2bus.respLayer7.occupancy          57334610                       # Layer occupancy (ticks)
system.tol2bus.respLayer7.utilization             0.3                       # Layer utilization (%)
system.tol2bus.respLayer8.occupancy           2190495                       # Layer occupancy (ticks)
system.tol2bus.respLayer8.utilization             0.0                       # Layer utilization (%)
system.tol2bus.respLayer9.occupancy          13278983                       # Layer occupancy (ticks)
system.tol2bus.respLayer9.utilization             0.1                       # Layer utilization (%)
system.tol2bus.respLayer12.occupancy        147860269                       # Layer occupancy (ticks)
system.tol2bus.respLayer12.utilization            0.7                       # Layer utilization (%)
system.tol2bus.respLayer13.occupancy        125420292                       # Layer occupancy (ticks)
system.tol2bus.respLayer13.utilization            0.6                       # Layer utilization (%)
system.tol2bus.respLayer14.occupancy          3835994                       # Layer occupancy (ticks)
system.tol2bus.respLayer14.utilization            0.0                       # Layer utilization (%)
system.tol2bus.respLayer15.occupancy         25061217                       # Layer occupancy (ticks)
system.tol2bus.respLayer15.utilization            0.1                       # Layer utilization (%)
system.tol2bus.respLayer18.occupancy         13264326                       # Layer occupancy (ticks)
system.tol2bus.respLayer18.utilization            0.1                       # Layer utilization (%)
system.tol2bus.respLayer19.occupancy         45648751                       # Layer occupancy (ticks)
system.tol2bus.respLayer19.utilization            0.2                       # Layer utilization (%)
system.tol2bus.respLayer20.occupancy           485496                       # Layer occupancy (ticks)
system.tol2bus.respLayer20.utilization            0.0                       # Layer utilization (%)
system.tol2bus.respLayer21.occupancy         10682742                       # Layer occupancy (ticks)
system.tol2bus.respLayer21.utilization            0.1                       # Layer utilization (%)
system.tol2bus.respLayer24.occupancy         12387335                       # Layer occupancy (ticks)
system.tol2bus.respLayer24.utilization            0.1                       # Layer utilization (%)
system.tol2bus.respLayer25.occupancy         44699177                       # Layer occupancy (ticks)
system.tol2bus.respLayer25.utilization            0.2                       # Layer utilization (%)
system.tol2bus.respLayer26.occupancy           507994                       # Layer occupancy (ticks)
system.tol2bus.respLayer26.utilization            0.0                       # Layer utilization (%)
system.tol2bus.respLayer27.occupancy         10712989                       # Layer occupancy (ticks)
system.tol2bus.respLayer27.utilization            0.1                       # Layer utilization (%)
system.tol2bus.respLayer30.occupancy         40510692                       # Layer occupancy (ticks)
system.tol2bus.respLayer30.utilization            0.2                       # Layer utilization (%)
system.tol2bus.respLayer31.occupancy         68756699                       # Layer occupancy (ticks)
system.tol2bus.respLayer31.utilization            0.3                       # Layer utilization (%)
system.tol2bus.respLayer32.occupancy          1583746                       # Layer occupancy (ticks)
system.tol2bus.respLayer32.utilization            0.0                       # Layer utilization (%)
system.tol2bus.respLayer33.occupancy         12813983                       # Layer occupancy (ticks)
system.tol2bus.respLayer33.utilization            0.1                       # Layer utilization (%)
system.tol2bus.respLayer36.occupancy         71024904                       # Layer occupancy (ticks)
system.tol2bus.respLayer36.utilization            0.4                       # Layer utilization (%)
system.tol2bus.respLayer37.occupancy        108946265                       # Layer occupancy (ticks)
system.tol2bus.respLayer37.utilization            0.5                       # Layer utilization (%)
system.tol2bus.respLayer38.occupancy          3696985                       # Layer occupancy (ticks)
system.tol2bus.respLayer38.utilization            0.0                       # Layer utilization (%)
system.tol2bus.respLayer39.occupancy         16868712                       # Layer occupancy (ticks)
system.tol2bus.respLayer39.utilization            0.1                       # Layer utilization (%)
system.tol2bus.respLayer42.occupancy         64636423                       # Layer occupancy (ticks)
system.tol2bus.respLayer42.utilization            0.3                       # Layer utilization (%)
system.tol2bus.respLayer43.occupancy         81039801                       # Layer occupancy (ticks)
system.tol2bus.respLayer43.utilization            0.4                       # Layer utilization (%)
system.tol2bus.respLayer44.occupancy          3662988                       # Layer occupancy (ticks)
system.tol2bus.respLayer44.utilization            0.0                       # Layer utilization (%)
system.tol2bus.respLayer45.occupancy         16934215                       # Layer occupancy (ticks)
system.tol2bus.respLayer45.utilization            0.1                       # Layer utilization (%)
[...]
system.cpu7.dcache.LoadLockedReq_mshr_miss_latency::switch_cpus7.data      6913530                       # number of LoadLockedReq MSHR miss cycles
system.cpu7.dcache.LoadLockedReq_mshr_miss_latency::total      6913530                       # number of LoadLockedReq MSHR miss cycles
system.cpu7.dcache.StoreCondReq_mshr_miss_latency::switch_cpus7.data      3711904                       # number of StoreCondReq MSHR miss cycles
system.cpu7.dcache.StoreCondReq_mshr_miss_latency::total      3711904                       # number of StoreCondReq MSHR miss cycles
system.cpu7.dcache.StoreCondFailReq_mshr_miss_latency::switch_cpus7.data       122000                       # number of StoreCondFailReq MSHR miss cycles
system.cpu7.dcache.StoreCondFailReq_mshr_miss_latency::total       122000                       # number of StoreCondFailReq MSHR miss cycles
system.cpu7.dcache.demand_mshr_miss_latency::switch_cpus7.data    421542244                       # number of demand (read+write) MSHR miss cycles
system.cpu7.dcache.demand_mshr_miss_latency::total    421542244                       # number of demand (read+write) MSHR miss cycles
system.cpu7.dcache.overall_mshr_miss_latency::switch_cpus7.data    677580006                       # number of overall MSHR miss cycles
system.cpu7.dcache.overall_mshr_miss_latency::total    677580006                       # number of overall MSHR miss cycles
system.cpu7.dcache.ReadReq_mshr_uncacheable_latency::switch_cpus7.data      2726000                       # number of ReadReq MSHR uncacheable cycles
system.cpu7.dcache.ReadReq_mshr_uncacheable_latency::total      2726000                       # number of ReadReq MSHR uncacheable cycles
system.cpu7.dcache.WriteReq_mshr_uncacheable_latency::switch_cpus7.data      2436000                       # number of WriteReq MSHR uncacheable cycles
system.cpu7.dcache.WriteReq_mshr_uncacheable_latency::total      2436000                       # number of WriteReq MSHR uncacheable cycles
system.cpu7.dcache.overall_mshr_uncacheable_latency::switch_cpus7.data      5162000                       # number of overall MSHR uncacheable cycles
system.cpu7.dcache.overall_mshr_uncacheable_latency::total      5162000                       # number of overall MSHR uncacheable cycles
system.cpu7.dcache.ReadReq_mshr_miss_rate::switch_cpus7.data     0.018306                       # mshr miss rate for ReadReq accesses
system.cpu7.dcache.ReadReq_mshr_miss_rate::total     0.018306                       # mshr miss rate for ReadReq accesses
system.cpu7.dcache.WriteReq_mshr_miss_rate::switch_cpus7.data     0.013548                       # mshr miss rate for WriteReq accesses
system.cpu7.dcache.WriteReq_mshr_miss_rate::total     0.013548                       # mshr miss rate for WriteReq accesses
system.cpu7.dcache.SoftPFReq_mshr_miss_rate::switch_cpus7.data     0.193332                       # mshr miss rate for SoftPFReq accesses
system.cpu7.dcache.SoftPFReq_mshr_miss_rate::total     0.193332                       # mshr miss rate for SoftPFReq accesses
system.cpu7.dcache.LoadLockedReq_mshr_miss_rate::switch_cpus7.data     0.037130                       # mshr miss rate for LoadLockedReq accesses
system.cpu7.dcache.LoadLockedReq_mshr_miss_rate::total     0.037130                       # mshr miss rate for LoadLockedReq accesses
system.cpu7.dcache.StoreCondReq_mshr_miss_rate::switch_cpus7.data     0.085680                       # mshr miss rate for StoreCondReq accesses
system.cpu7.dcache.StoreCondReq_mshr_miss_rate::total     0.085680                       # mshr miss rate for StoreCondReq accesses
system.cpu7.dcache.demand_mshr_miss_rate::switch_cpus7.data     0.016819                       # mshr miss rate for demand accesses
system.cpu7.dcache.demand_mshr_miss_rate::total     0.016819                       # mshr miss rate for demand accesses
system.cpu7.dcache.overall_mshr_miss_rate::switch_cpus7.data     0.025494                       # mshr miss rate for overall accesses
system.cpu7.dcache.overall_mshr_miss_rate::total     0.025494                       # mshr miss rate for overall accesses
system.cpu7.dcache.ReadReq_avg_mshr_miss_latency::switch_cpus7.data 12843.977251                       # average ReadReq mshr miss latency
system.cpu7.dcache.ReadReq_avg_mshr_miss_latency::total 12843.977251                       # average ReadReq mshr miss latency
system.cpu7.dcache.WriteReq_avg_mshr_miss_latency::switch_cpus7.data 10876.708736                       # average WriteReq mshr miss latency
system.cpu7.dcache.WriteReq_avg_mshr_miss_latency::total 10876.708736                       # average WriteReq mshr miss latency
system.cpu7.dcache.SoftPFReq_avg_mshr_miss_latency::switch_cpus7.data 12623.268846                       # average SoftPFReq mshr miss latency
system.cpu7.dcache.SoftPFReq_avg_mshr_miss_latency::total 12623.268846                       # average SoftPFReq mshr miss latency
system.cpu7.dcache.LoadLockedReq_avg_mshr_miss_latency::switch_cpus7.data 14996.811280                       # average LoadLockedReq mshr miss latency
system.cpu7.dcache.LoadLockedReq_avg_mshr_miss_latency::total 14996.811280                       # average LoadLockedReq mshr miss latency
system.cpu7.dcache.StoreCondReq_avg_mshr_miss_latency::switch_cpus7.data  3697.115538                       # average StoreCondReq mshr miss latency
system.cpu7.dcache.StoreCondReq_avg_mshr_miss_latency::total  3697.115538                       # average StoreCondReq mshr miss latency
system.cpu7.dcache.StoreCondFailReq_avg_mshr_miss_latency::switch_cpus7.data          inf                       # average StoreCondFailReq mshr miss latency
system.cpu7.dcache.StoreCondFailReq_avg_mshr_miss_latency::total          inf                       # average StoreCondFailReq mshr miss latency
system.cpu7.dcache.demand_avg_mshr_miss_latency::switch_cpus7.data 12348.543926                       # average overall mshr miss latency
system.cpu7.dcache.demand_avg_mshr_miss_latency::total 12348.543926                       # average overall mshr miss latency
system.cpu7.dcache.overall_avg_mshr_miss_latency::switch_cpus7.data 12450.937266                       # average overall mshr miss latency
system.cpu7.dcache.overall_avg_mshr_miss_latency::total 12450.937266                       # average overall mshr miss latency
system.cpu7.dcache.ReadReq_avg_mshr_uncacheable_latency::switch_cpus7.data          inf                       # average ReadReq mshr uncacheable latency
system.cpu7.dcache.ReadReq_avg_mshr_uncacheable_latency::total          inf                       # average ReadReq mshr uncacheable latency
system.cpu7.dcache.WriteReq_avg_mshr_uncacheable_latency::switch_cpus7.data          inf                       # average WriteReq mshr uncacheable latency
system.cpu7.dcache.WriteReq_avg_mshr_uncacheable_latency::total          inf                       # average WriteReq mshr uncacheable latency
system.cpu7.dcache.overall_avg_mshr_uncacheable_latency::switch_cpus7.data          inf                       # average overall mshr uncacheable latency
system.cpu7.dcache.overall_avg_mshr_uncacheable_latency::total          inf                       # average overall mshr uncacheable latency
system.cpu7.dcache.no_allocate_misses               0                       # Number of misses that were no-allocate
system.iocache.tags.replacements                  114                       # number of replacements
system.iocache.tags.tagsinuse               12.490163                       # Cycle average of tags in use
system.iocache.tags.total_refs                      0                       # Total number of references to valid blocks.
system.iocache.tags.sampled_refs                  130                       # Sample count of references to valid blocks.
system.iocache.tags.avg_refs                        0                       # Average number of references to valid blocks.
system.iocache.tags.warmup_cycle         3199496380000                       # Cycle when the warmup percentage was hit.
system.iocache.tags.occ_blocks::realview.ide    12.490163                       # Average occupied blocks per requestor
system.iocache.tags.occ_percent::realview.ide     0.780635                       # Average percentage of cache occupancy
system.iocache.tags.occ_percent::total       0.780635                       # Average percentage of cache occupancy
system.iocache.tags.occ_task_id_blocks::1023           16                       # Occupied blocks per task id
system.iocache.tags.age_task_id_blocks_1023::4           16                       # Occupied blocks per task id
system.iocache.tags.occ_task_id_percent::1023            1                       # Percentage of cache occupancy per task id
system.iocache.tags.tag_accesses                 1170                       # Number of tag accesses
system.iocache.tags.data_accesses                1170                       # Number of data accesses
system.iocache.WriteInvalidateReq_hits::realview.ide          128                       # number of WriteInvalidateReq hits
system.iocache.WriteInvalidateReq_hits::total          128                       # number of WriteInvalidateReq hits
system.iocache.ReadReq_misses::realview.ide            2                       # number of ReadReq misses
system.iocache.ReadReq_misses::total                2                       # number of ReadReq misses
system.iocache.demand_misses::realview.ide            2                       # number of demand (read+write) misses
system.iocache.demand_misses::total                 2                       # number of demand (read+write) misses
system.iocache.overall_misses::realview.ide            2                       # number of overall misses
system.iocache.overall_misses::total                2                       # number of overall misses
system.iocache.ReadReq_miss_latency::realview.ide       218999                       # number of ReadReq miss cycles
system.iocache.ReadReq_miss_latency::total       218999                       # number of ReadReq miss cycles
system.iocache.demand_miss_latency::realview.ide       218999                       # number of demand (read+write) miss cycles
system.iocache.demand_miss_latency::total       218999                       # number of demand (read+write) miss cycles
system.iocache.overall_miss_latency::realview.ide       218999                       # number of overall miss cycles
system.iocache.overall_miss_latency::total       218999                       # number of overall miss cycles
system.iocache.ReadReq_accesses::realview.ide            2                       # number of ReadReq accesses(hits+misses)
system.iocache.ReadReq_accesses::total              2                       # number of ReadReq accesses(hits+misses)
system.iocache.WriteInvalidateReq_accesses::realview.ide          128                       # number of WriteInvalidateReq accesses(hits+misses)
system.iocache.WriteInvalidateReq_accesses::total          128                       # number of WriteInvalidateReq accesses(hits+misses)
system.iocache.demand_accesses::realview.ide            2                       # number of demand (read+write) accesses
system.iocache.demand_accesses::total               2                       # number of demand (read+write) accesses
system.iocache.overall_accesses::realview.ide            2                       # number of overall (read+write) accesses
system.iocache.overall_accesses::total              2                       # number of overall (read+write) accesses
system.iocache.ReadReq_miss_rate::realview.ide            1                       # miss rate for ReadReq accesses
system.iocache.ReadReq_miss_rate::total             1                       # miss rate for ReadReq accesses
system.iocache.demand_miss_rate::realview.ide            1                       # miss rate for demand accesses
system.iocache.demand_miss_rate::total              1                       # miss rate for demand accesses
system.iocache.overall_miss_rate::realview.ide            1                       # miss rate for overall accesses
system.iocache.overall_miss_rate::total             1                       # miss rate for overall accesses
system.iocache.ReadReq_avg_miss_latency::realview.ide 109499.500000                       # average ReadReq miss latency
system.iocache.ReadReq_avg_miss_latency::total 109499.500000                       # average ReadReq miss latency
system.iocache.demand_avg_miss_latency::realview.ide 109499.500000                       # average overall miss latency
system.iocache.demand_avg_miss_latency::total 109499.500000                       # average overall miss latency
system.iocache.overall_avg_miss_latency::realview.ide 109499.500000                       # average overall miss latency
system.iocache.overall_avg_miss_latency::total 109499.500000                       # average overall miss latency
system.iocache.blocked_cycles::no_mshrs             0                       # number of cycles access was blocked
system.iocache.blocked_cycles::no_targets            0                       # number of cycles access was blocked
system.iocache.blocked::no_mshrs                    0                       # number of cycles access was blocked
system.iocache.blocked::no_targets                  0                       # number of cycles access was blocked
system.iocache.avg_blocked_cycles::no_mshrs          nan                       # average number of cycles each access was blocked
system.iocache.avg_blocked_cycles::no_targets          nan                       # average number of cycles each access was blocked
system.iocache.fast_writes                        128                       # number of fast writes performed
system.iocache.cache_copies                         0                       # number of cache copies performed
system.iocache.ReadReq_mshr_misses::realview.ide            2                       # number of ReadReq MSHR misses
system.iocache.ReadReq_mshr_misses::total            2                       # number of ReadReq MSHR misses
system.iocache.WriteInvalidateReq_mshr_misses::realview.ide          128                       # number of WriteInvalidateReq MSHR misses
system.iocache.WriteInvalidateReq_mshr_misses::total          128                       # number of WriteInvalidateReq MSHR misses
system.iocache.demand_mshr_misses::realview.ide            2                       # number of demand (read+write) MSHR misses
system.iocache.demand_mshr_misses::total            2                       # number of demand (read+write) MSHR misses
system.iocache.overall_mshr_misses::realview.ide            2                       # number of overall MSHR misses
system.iocache.overall_mshr_misses::total            2                       # number of overall MSHR misses
system.iocache.ReadReq_mshr_miss_latency::realview.ide       114999                       # number of ReadReq MSHR miss cycles
system.iocache.ReadReq_mshr_miss_latency::total       114999                       # number of ReadReq MSHR miss cycles
system.iocache.WriteInvalidateReq_mshr_miss_latency::realview.ide     10966988                       # number of WriteInvalidateReq MSHR miss cycles
system.iocache.WriteInvalidateReq_mshr_miss_latency::total     10966988                       # number of WriteInvalidateReq MSHR miss cycles
system.iocache.demand_mshr_miss_latency::realview.ide       114999                       # number of demand (read+write) MSHR miss cycles
system.iocache.demand_mshr_miss_latency::total       114999                       # number of demand (read+write) MSHR miss cycles
system.iocache.overall_mshr_miss_latency::realview.ide       114999                       # number of overall MSHR miss cycles
system.iocache.overall_mshr_miss_latency::total       114999                       # number of overall MSHR miss cycles
system.iocache.ReadReq_mshr_miss_rate::realview.ide            1                       # mshr miss rate for ReadReq accesses
system.iocache.ReadReq_mshr_miss_rate::total            1                       # mshr miss rate for ReadReq accesses
system.iocache.WriteInvalidateReq_mshr_miss_rate::realview.ide            1                       # mshr miss rate for WriteInvalidateReq accesses
system.iocache.WriteInvalidateReq_mshr_miss_rate::total            1                       # mshr miss rate for WriteInvalidateReq accesses
system.iocache.demand_mshr_miss_rate::realview.ide            1                       # mshr miss rate for demand accesses
system.iocache.demand_mshr_miss_rate::total            1                       # mshr miss rate for demand accesses
system.iocache.overall_mshr_miss_rate::realview.ide            1                       # mshr miss rate for overall accesses
system.iocache.overall_mshr_miss_rate::total            1                       # mshr miss rate for overall accesses
system.iocache.ReadReq_avg_mshr_miss_latency::realview.ide 57499.500000                       # average ReadReq mshr miss latency
system.iocache.ReadReq_avg_mshr_miss_latency::total 57499.500000                       # average ReadReq mshr miss latency
system.iocache.WriteInvalidateReq_avg_mshr_miss_latency::realview.ide 85679.593750                       # average WriteInvalidateReq mshr miss latency
system.iocache.WriteInvalidateReq_avg_mshr_miss_latency::total 85679.593750                       # average WriteInvalidateReq mshr miss latency
system.iocache.demand_avg_mshr_miss_latency::realview.ide 57499.500000                       # average overall mshr miss latency
system.iocache.demand_avg_mshr_miss_latency::total 57499.500000                       # average overall mshr miss latency
system.iocache.overall_avg_mshr_miss_latency::realview.ide 57499.500000                       # average overall mshr miss latency
system.iocache.overall_avg_mshr_miss_latency::total 57499.500000                       # average overall mshr miss latency
system.iocache.no_allocate_misses                   0                       # Number of misses that were no-allocate
system.switch_cpus0.kern.inst.arm                   0                       # number of arm instructions executed
system.switch_cpus0.kern.inst.quiesce               0                       # number of quiesce instructions executed
system.switch_cpus1.kern.inst.arm                   0                       # number of arm instructions executed
system.switch_cpus1.kern.inst.quiesce               0                       # number of quiesce instructions executed
system.switch_cpus2.kern.inst.arm                   0                       # number of arm instructions executed
system.switch_cpus2.kern.inst.quiesce               0                       # number of quiesce instructions executed
system.switch_cpus3.kern.inst.arm                   0                       # number of arm instructions executed
system.switch_cpus3.kern.inst.quiesce               0                       # number of quiesce instructions executed
system.switch_cpus4.kern.inst.arm                   0                       # number of arm instructions executed
system.switch_cpus4.kern.inst.quiesce               0                       # number of quiesce instructions executed
system.switch_cpus5.kern.inst.arm                   0                       # number of arm instructions executed
system.switch_cpus5.kern.inst.quiesce               0                       # number of quiesce instructions executed
system.switch_cpus6.kern.inst.arm                   0                       # number of arm instructions executed
system.switch_cpus6.kern.inst.quiesce               0                       # number of quiesce instructions executed
system.switch_cpus7.kern.inst.arm                   0                       # number of arm instructions executed
system.switch_cpus7.kern.inst.quiesce               0                       # number of quiesce instructions executed

---------- End Simulation Statistics   ----------
