
---------- Begin Simulation Statistics ----------
sim_seconds                                  3.381964                       # Number of seconds simulated
sim_ticks                                3381963735000                       # Number of ticks simulated
final_tick                               3381963735000                       # Number of ticks from beginning of simulation (restored from checkpoints and never reset)
sim_freq                                 1000000000000                       # Frequency of simulated ticks
host_inst_rate                                1144368                       # Simulator instruction rate (inst/s)
host_op_rate                                  1341009                       # Simulator op (including micro ops) rate (op/s)
host_tick_rate                             1621472348                       # Simulator tick rate (ticks/s)
host_mem_usage                                 844636                       # Number of bytes of host memory used
host_seconds                                  2085.74                       # Real time elapsed on the host
sim_insts                                  2386850277                       # Number of instructions simulated
sim_ops                                    2796990162                       # Number of ops (including micro ops) simulated
system.voltage_domain.voltage                       1                       # Voltage in Volts
system.clk_domain.clock                          1000                       # Clock period in ticks
system.realview.nvmem.bytes_read::cpu0.inst           20                       # Number of bytes read from this memory
system.realview.nvmem.bytes_read::cpu1.inst           48                       # Number of bytes read from this memory
system.realview.nvmem.bytes_read::cpu2.inst           48                       # Number of bytes read from this memory
system.realview.nvmem.bytes_read::cpu3.inst           48                       # Number of bytes read from this memory
system.realview.nvmem.bytes_read::cpu4.inst           48                       # Number of bytes read from this memory
system.realview.nvmem.bytes_read::cpu5.inst           48                       # Number of bytes read from this memory
system.realview.nvmem.bytes_read::cpu6.inst           48                       # Number of bytes read from this memory
system.realview.nvmem.bytes_read::cpu7.inst           48                       # Number of bytes read from this memory
system.realview.nvmem.bytes_read::total           356                       # Number of bytes read from this memory
system.realview.nvmem.bytes_inst_read::cpu0.inst           20                       # Number of instructions bytes read from this memory
system.realview.nvmem.bytes_inst_read::cpu1.inst           48                       # Number of instructions bytes read from this memory
system.realview.nvmem.bytes_inst_read::cpu2.inst           48                       # Number of instructions bytes read from this memory
system.realview.nvmem.bytes_inst_read::cpu3.inst           48                       # Number of instructions bytes read from this memory
system.realview.nvmem.bytes_inst_read::cpu4.inst           48                       # Number of instructions bytes read from this memory
system.realview.nvmem.bytes_inst_read::cpu5.inst           48                       # Number of instructions bytes read from this memory
system.realview.nvmem.bytes_inst_read::cpu6.inst           48                       # Number of instructions bytes read from this memory
system.realview.nvmem.bytes_inst_read::cpu7.inst           48                       # Number of instructions bytes read from this memory
system.realview.nvmem.bytes_inst_read::total          356                       # Number of instructions bytes read from this memory
system.realview.nvmem.num_reads::cpu0.inst            5                       # Number of read requests responded to by this memory
system.realview.nvmem.num_reads::cpu1.inst           12                       # Number of read requests responded to by this memory
system.realview.nvmem.num_reads::cpu2.inst           12                       # Number of read requests responded to by this memory
system.realview.nvmem.num_reads::cpu3.inst           12                       # Number of read requests responded to by this memory
system.realview.nvmem.num_reads::cpu4.inst           12                       # Number of read requests responded to by this memory
system.realview.nvmem.num_reads::cpu5.inst           12                       # Number of read requests responded to by this memory
system.realview.nvmem.num_reads::cpu6.inst           12                       # Number of read requests responded to by this memory
system.realview.nvmem.num_reads::cpu7.inst           12                       # Number of read requests responded to by this memory
system.realview.nvmem.num_reads::total             89                       # Number of read requests responded to by this memory
system.realview.nvmem.bw_read::cpu0.inst            6                       # Total read bandwidth from this memory (bytes/s)
system.realview.nvmem.bw_read::cpu1.inst           14                       # Total read bandwidth from this memory (bytes/s)
system.realview.nvmem.bw_read::cpu2.inst           14                       # Total read bandwidth from this memory (bytes/s)
system.realview.nvmem.bw_read::cpu3.inst           14                       # Total read bandwidth from this memory (bytes/s)
system.realview.nvmem.bw_read::cpu4.inst           14                       # Total read bandwidth from this memory (bytes/s)
system.realview.nvmem.bw_read::cpu5.inst           14                       # Total read bandwidth from this memory (bytes/s)
system.realview.nvmem.bw_read::cpu6.inst           14                       # Total read bandwidth from this memory (bytes/s)
system.realview.nvmem.bw_read::cpu7.inst           14                       # Total read bandwidth from this memory (bytes/s)
system.realview.nvmem.bw_read::total              105                       # Total read bandwidth from this memory (bytes/s)
system.realview.nvmem.bw_inst_read::cpu0.inst            6                       # Instruction read bandwidth from this memory (bytes/s)
system.realview.nvmem.bw_inst_read::cpu1.inst           14                       # Instruction read bandwidth from this memory (bytes/s)
system.realview.nvmem.bw_inst_read::cpu2.inst           14                       # Instruction read bandwidth from this memory (bytes/s)
system.realview.nvmem.bw_inst_read::cpu3.inst           14                       # Instruction read bandwidth from this memory (bytes/s)
system.realview.nvmem.bw_inst_read::cpu4.inst           14                       # Instruction read bandwidth from this memory (bytes/s)
system.realview.nvmem.bw_inst_read::cpu5.inst           14                       # Instruction read bandwidth from this memory (bytes/s)
system.realview.nvmem.bw_inst_read::cpu6.inst           14                       # Instruction read bandwidth from this memory (bytes/s)
system.realview.nvmem.bw_inst_read::cpu7.inst           14                       # Instruction read bandwidth from this memory (bytes/s)
system.realview.nvmem.bw_inst_read::total          105                       # Instruction read bandwidth from this memory (bytes/s)
system.realview.nvmem.bw_total::cpu0.inst            6                       # Total bandwidth to/from this memory (bytes/s)
system.realview.nvmem.bw_total::cpu1.inst           14                       # Total bandwidth to/from this memory (bytes/s)
system.realview.nvmem.bw_total::cpu2.inst           14                       # Total bandwidth to/from this memory (bytes/s)
system.realview.nvmem.bw_total::cpu3.inst           14                       # Total bandwidth to/from this memory (bytes/s)
system.realview.nvmem.bw_total::cpu4.inst           14                       # Total bandwidth to/from this memory (bytes/s)
system.realview.nvmem.bw_total::cpu5.inst           14                       # Total bandwidth to/from this memory (bytes/s)
system.realview.nvmem.bw_total::cpu6.inst           14                       # Total bandwidth to/from this memory (bytes/s)
system.realview.nvmem.bw_total::cpu7.inst           14                       # Total bandwidth to/from this memory (bytes/s)
system.realview.nvmem.bw_total::total             105                       # Total bandwidth to/from this memory (bytes/s)
system.mem_ctrls.bytes_read::realview.ide       389112                       # Number of bytes read from this memory
system.mem_ctrls.bytes_read::cpu0.dtb.walker      1759612                       # Number of bytes read from this memory
system.mem_ctrls.bytes_read::cpu0.itb.walker       422244                       # Number of bytes read from this memory
system.mem_ctrls.bytes_read::cpu0.inst     2286710000                       # Number of bytes read from this memory
system.mem_ctrls.bytes_read::cpu0.data      504159982                       # Number of bytes read from this memory
system.mem_ctrls.bytes_read::cpu1.dtb.walker       594228                       # Number of bytes read from this memory
system.mem_ctrls.bytes_read::cpu1.itb.walker       272056                       # Number of bytes read from this memory
system.mem_ctrls.bytes_read::cpu1.inst      482863816                       # Number of bytes read from this memory
system.mem_ctrls.bytes_read::cpu1.data      126994473                       # Number of bytes read from this memory
system.mem_ctrls.bytes_read::cpu2.dtb.walker       812096                       # Number of bytes read from this memory
system.mem_ctrls.bytes_read::cpu2.itb.walker       412860                       # Number of bytes read from this memory
system.mem_ctrls.bytes_read::cpu2.inst      689815108                       # Number of bytes read from this memory
system.mem_ctrls.bytes_read::cpu2.data      204260026                       # Number of bytes read from this memory
system.mem_ctrls.bytes_read::cpu3.dtb.walker       857516                       # Number of bytes read from this memory
system.mem_ctrls.bytes_read::cpu3.itb.walker       367052                       # Number of bytes read from this memory
system.mem_ctrls.bytes_read::cpu3.inst      945086004                       # Number of bytes read from this memory
system.mem_ctrls.bytes_read::cpu3.data      264743705                       # Number of bytes read from this memory
system.mem_ctrls.bytes_read::cpu4.dtb.walker       485192                       # Number of bytes read from this memory
system.mem_ctrls.bytes_read::cpu4.itb.walker       244280                       # Number of bytes read from this memory
system.mem_ctrls.bytes_read::cpu4.inst     1207204156                       # Number of bytes read from this memory
system.mem_ctrls.bytes_read::cpu4.data      301486821                       # Number of bytes read from this memory
system.mem_ctrls.bytes_read::cpu5.dtb.walker       888624                       # Number of bytes read from this memory
system.mem_ctrls.bytes_read::cpu5.itb.walker       404892                       # Number of bytes read from this memory
system.mem_ctrls.bytes_read::cpu5.inst     1275161748                       # Number of bytes read from this memory
system.mem_ctrls.bytes_read::cpu5.data      379541752                       # Number of bytes read from this memory
system.mem_ctrls.bytes_read::cpu6.dtb.walker       502660                       # Number of bytes read from this memory
system.mem_ctrls.bytes_read::cpu6.itb.walker       240032                       # Number of bytes read from this memory
system.mem_ctrls.bytes_read::cpu6.inst     1178365780                       # Number of bytes read from this memory
system.mem_ctrls.bytes_read::cpu6.data      356793303                       # Number of bytes read from this memory
system.mem_ctrls.bytes_read::cpu7.dtb.walker      1367524                       # Number of bytes read from this memory
system.mem_ctrls.bytes_read::cpu7.itb.walker       567912                       # Number of bytes read from this memory
system.mem_ctrls.bytes_read::cpu7.inst     1739761568                       # Number of bytes read from this memory
system.mem_ctrls.bytes_read::cpu7.data      523838638                       # Number of bytes read from this memory
system.mem_ctrls.bytes_read::total        12477374772                       # Number of bytes read from this memory
system.mem_ctrls.bytes_inst_read::cpu0.inst   2286710000                       # Number of instructions bytes read from this memory
system.mem_ctrls.bytes_inst_read::cpu1.inst    482863816                       # Number of instructions bytes read from this memory
system.mem_ctrls.bytes_inst_read::cpu2.inst    689815108                       # Number of instructions bytes read from this memory
system.mem_ctrls.bytes_inst_read::cpu3.inst    945086004                       # Number of instructions bytes read from this memory
system.mem_ctrls.bytes_inst_read::cpu4.inst   1207204156                       # Number of instructions bytes read from this memory
system.mem_ctrls.bytes_inst_read::cpu5.inst   1275161748                       # Number of instructions bytes read from this memory
system.mem_ctrls.bytes_inst_read::cpu6.inst   1178365780                       # Number of instructions bytes read from this memory
system.mem_ctrls.bytes_inst_read::cpu7.inst   1739761568                       # Number of instructions bytes read from this memory
system.mem_ctrls.bytes_inst_read::total    9804968180                       # Number of instructions bytes read from this memory
system.mem_ctrls.bytes_written::realview.ide     12255744                       # Number of bytes written to this memory
system.mem_ctrls.bytes_written::cpu0.data    453124242                       # Number of bytes written to this memory
system.mem_ctrls.bytes_written::cpu1.data     99158116                       # Number of bytes written to this memory
system.mem_ctrls.bytes_written::cpu2.data    114520734                       # Number of bytes written to this memory
system.mem_ctrls.bytes_written::cpu3.data    122826406                       # Number of bytes written to this memory
system.mem_ctrls.bytes_written::cpu4.data     67924561                       # Number of bytes written to this memory
system.mem_ctrls.bytes_written::cpu5.data    123803259                       # Number of bytes written to this memory
system.mem_ctrls.bytes_written::cpu6.data     62798844                       # Number of bytes written to this memory
system.mem_ctrls.bytes_written::cpu7.data    151628237                       # Number of bytes written to this memory
system.mem_ctrls.bytes_written::total      1208040143                       # Number of bytes written to this memory
system.mem_ctrls.num_reads::realview.ide         8319                       # Number of read requests responded to by this memory
system.mem_ctrls.num_reads::cpu0.dtb.walker       439903                       # Number of read requests responded to by this memory
system.mem_ctrls.num_reads::cpu0.itb.walker       105561                       # Number of read requests responded to by this memory
system.mem_ctrls.num_reads::cpu0.inst       571677500                       # Number of read requests responded to by this memory
system.mem_ctrls.num_reads::cpu0.data       112441708                       # Number of read requests responded to by this memory
system.mem_ctrls.num_reads::cpu1.dtb.walker       148557                       # Number of read requests responded to by this memory
system.mem_ctrls.num_reads::cpu1.itb.walker        68014                       # Number of read requests responded to by this memory
system.mem_ctrls.num_reads::cpu1.inst       120715954                       # Number of read requests responded to by this memory
system.mem_ctrls.num_reads::cpu1.data        27977868                       # Number of read requests responded to by this memory
system.mem_ctrls.num_reads::cpu2.dtb.walker       203024                       # Number of read requests responded to by this memory
system.mem_ctrls.num_reads::cpu2.itb.walker       103215                       # Number of read requests responded to by this memory
system.mem_ctrls.num_reads::cpu2.inst       172453777                       # Number of read requests responded to by this memory
system.mem_ctrls.num_reads::cpu2.data        46050455                       # Number of read requests responded to by this memory
system.mem_ctrls.num_reads::cpu3.dtb.walker       214379                       # Number of read requests responded to by this memory
system.mem_ctrls.num_reads::cpu3.itb.walker        91763                       # Number of read requests responded to by this memory
system.mem_ctrls.num_reads::cpu3.inst       236271501                       # Number of read requests responded to by this memory
system.mem_ctrls.num_reads::cpu3.data        62888866                       # Number of read requests responded to by this memory
system.mem_ctrls.num_reads::cpu4.dtb.walker       121298                       # Number of read requests responded to by this memory
system.mem_ctrls.num_reads::cpu4.itb.walker        61070                       # Number of read requests responded to by this memory
system.mem_ctrls.num_reads::cpu4.inst       301801039                       # Number of read requests responded to by this memory
system.mem_ctrls.num_reads::cpu4.data        81414822                       # Number of read requests responded to by this memory
system.mem_ctrls.num_reads::cpu5.dtb.walker       222156                       # Number of read requests responded to by this memory
system.mem_ctrls.num_reads::cpu5.itb.walker       101223                       # Number of read requests responded to by this memory
system.mem_ctrls.num_reads::cpu5.inst       318790437                       # Number of read requests responded to by this memory
system.mem_ctrls.num_reads::cpu5.data        90418881                       # Number of read requests responded to by this memory
system.mem_ctrls.num_reads::cpu6.dtb.walker       125665                       # Number of read requests responded to by this memory
system.mem_ctrls.num_reads::cpu6.itb.walker        60008                       # Number of read requests responded to by this memory
system.mem_ctrls.num_reads::cpu6.inst       294591445                       # Number of read requests responded to by this memory
system.mem_ctrls.num_reads::cpu6.data        88308346                       # Number of read requests responded to by this memory
system.mem_ctrls.num_reads::cpu7.dtb.walker       341881                       # Number of read requests responded to by this memory
system.mem_ctrls.num_reads::cpu7.itb.walker       141978                       # Number of read requests responded to by this memory
system.mem_ctrls.num_reads::cpu7.inst       434940392                       # Number of read requests responded to by this memory
system.mem_ctrls.num_reads::cpu7.data       126435713                       # Number of read requests responded to by this memory
system.mem_ctrls.num_reads::total          3089736718                       # Number of read requests responded to by this memory
system.mem_ctrls.num_writes::realview.ide       191496                       # Number of write requests responded to by this memory
system.mem_ctrls.num_writes::cpu0.data      114591313                       # Number of write requests responded to by this memory
system.mem_ctrls.num_writes::cpu1.data       25079786                       # Number of write requests responded to by this memory
system.mem_ctrls.num_writes::cpu2.data       29269798                       # Number of write requests responded to by this memory
system.mem_ctrls.num_writes::cpu3.data       31213750                       # Number of write requests responded to by this memory
system.mem_ctrls.num_writes::cpu4.data       17216168                       # Number of write requests responded to by this memory
system.mem_ctrls.num_writes::cpu5.data       31281324                       # Number of write requests responded to by this memory
system.mem_ctrls.num_writes::cpu6.data       15971604                       # Number of write requests responded to by this memory
system.mem_ctrls.num_writes::cpu7.data       38629119                       # Number of write requests responded to by this memory
system.mem_ctrls.num_writes::total          303444358                       # Number of write requests responded to by this memory
system.mem_ctrls.bw_read::realview.ide         115055                       # Total read bandwidth from this memory (bytes/s)
system.mem_ctrls.bw_read::cpu0.dtb.walker       520293                       # Total read bandwidth from this memory (bytes/s)
system.mem_ctrls.bw_read::cpu0.itb.walker       124852                       # Total read bandwidth from this memory (bytes/s)
system.mem_ctrls.bw_read::cpu0.inst         676148587                       # Total read bandwidth from this memory (bytes/s)
system.mem_ctrls.bw_read::cpu0.data         149073148                       # Total read bandwidth from this memory (bytes/s)
system.mem_ctrls.bw_read::cpu1.dtb.walker       175705                       # Total read bandwidth from this memory (bytes/s)
system.mem_ctrls.bw_read::cpu1.itb.walker        80443                       # Total read bandwidth from this memory (bytes/s)
system.mem_ctrls.bw_read::cpu1.inst         142776166                       # Total read bandwidth from this memory (bytes/s)
system.mem_ctrls.bw_read::cpu1.data          37550513                       # Total read bandwidth from this memory (bytes/s)
system.mem_ctrls.bw_read::cpu2.dtb.walker       240126                       # Total read bandwidth from this memory (bytes/s)
system.mem_ctrls.bw_read::cpu2.itb.walker       122077                       # Total read bandwidth from this memory (bytes/s)
system.mem_ctrls.bw_read::cpu2.inst         203968807                       # Total read bandwidth from this memory (bytes/s)
system.mem_ctrls.bw_read::cpu2.data          60396871                       # Total read bandwidth from this memory (bytes/s)
system.mem_ctrls.bw_read::cpu3.dtb.walker       253556                       # Total read bandwidth from this memory (bytes/s)
system.mem_ctrls.bw_read::cpu3.itb.walker       108532                       # Total read bandwidth from this memory (bytes/s)
system.mem_ctrls.bw_read::cpu3.inst         279448888                       # Total read bandwidth from this memory (bytes/s)
system.mem_ctrls.bw_read::cpu3.data          78281060                       # Total read bandwidth from this memory (bytes/s)
system.mem_ctrls.bw_read::cpu4.dtb.walker       143465                       # Total read bandwidth from this memory (bytes/s)
system.mem_ctrls.bw_read::cpu4.itb.walker        72230                       # Total read bandwidth from this memory (bytes/s)
system.mem_ctrls.bw_read::cpu4.inst         356953608                       # Total read bandwidth from this memory (bytes/s)
system.mem_ctrls.bw_read::cpu4.data          89145492                       # Total read bandwidth from this memory (bytes/s)
system.mem_ctrls.bw_read::cpu5.dtb.walker       262754                       # Total read bandwidth from this memory (bytes/s)
system.mem_ctrls.bw_read::cpu5.itb.walker       119721                       # Total read bandwidth from this memory (bytes/s)
system.mem_ctrls.bw_read::cpu5.inst         377047730                       # Total read bandwidth from this memory (bytes/s)
system.mem_ctrls.bw_read::cpu5.data         112225258                       # Total read bandwidth from this memory (bytes/s)
system.mem_ctrls.bw_read::cpu6.dtb.walker       148630                       # Total read bandwidth from this memory (bytes/s)
system.mem_ctrls.bw_read::cpu6.itb.walker        70974                       # Total read bandwidth from this memory (bytes/s)
system.mem_ctrls.bw_read::cpu6.inst         348426498                       # Total read bandwidth from this memory (bytes/s)
system.mem_ctrls.bw_read::cpu6.data         105498855                       # Total read bandwidth from this memory (bytes/s)
system.mem_ctrls.bw_read::cpu7.dtb.walker       404358                       # Total read bandwidth from this memory (bytes/s)
system.mem_ctrls.bw_read::cpu7.itb.walker       167924                       # Total read bandwidth from this memory (bytes/s)
system.mem_ctrls.bw_read::cpu7.inst         514423484                       # Total read bandwidth from this memory (bytes/s)
system.mem_ctrls.bw_read::cpu7.data         154891855                       # Total read bandwidth from this memory (bytes/s)
system.mem_ctrls.bw_read::total            3689387513                       # Total read bandwidth from this memory (bytes/s)
system.mem_ctrls.bw_inst_read::cpu0.inst    676148587                       # Instruction read bandwidth from this memory (bytes/s)
system.mem_ctrls.bw_inst_read::cpu1.inst    142776166                       # Instruction read bandwidth from this memory (bytes/s)
system.mem_ctrls.bw_inst_read::cpu2.inst    203968807                       # Instruction read bandwidth from this memory (bytes/s)
system.mem_ctrls.bw_inst_read::cpu3.inst    279448888                       # Instruction read bandwidth from this memory (bytes/s)
system.mem_ctrls.bw_inst_read::cpu4.inst    356953608                       # Instruction read bandwidth from this memory (bytes/s)
system.mem_ctrls.bw_inst_read::cpu5.inst    377047730                       # Instruction read bandwidth from this memory (bytes/s)
system.mem_ctrls.bw_inst_read::cpu6.inst    348426498                       # Instruction read bandwidth from this memory (bytes/s)
system.mem_ctrls.bw_inst_read::cpu7.inst    514423484                       # Instruction read bandwidth from this memory (bytes/s)
system.mem_ctrls.bw_inst_read::total       2899193767                       # Instruction read bandwidth from this memory (bytes/s)
system.mem_ctrls.bw_write::realview.ide       3623854                       # Write bandwidth from this memory (bytes/s)
system.mem_ctrls.bw_write::cpu0.data        133982585                       # Write bandwidth from this memory (bytes/s)
system.mem_ctrls.bw_write::cpu1.data         29319686                       # Write bandwidth from this memory (bytes/s)
system.mem_ctrls.bw_write::cpu2.data         33862200                       # Write bandwidth from this memory (bytes/s)
system.mem_ctrls.bw_write::cpu3.data         36318073                       # Write bandwidth from this memory (bytes/s)
system.mem_ctrls.bw_write::cpu4.data         20084355                       # Write bandwidth from this memory (bytes/s)
system.mem_ctrls.bw_write::cpu5.data         36606915                       # Write bandwidth from this memory (bytes/s)
system.mem_ctrls.bw_write::cpu6.data         18568751                       # Write bandwidth from this memory (bytes/s)
system.mem_ctrls.bw_write::cpu7.data         44834377                       # Write bandwidth from this memory (bytes/s)
system.mem_ctrls.bw_write::total            357200797                       # Write bandwidth from this memory (bytes/s)
system.mem_ctrls.bw_total::realview.ide       3738909                       # Total bandwidth to/from this memory (bytes/s)
system.mem_ctrls.bw_total::cpu0.dtb.walker       520293                       # Total bandwidth to/from this memory (bytes/s)
system.mem_ctrls.bw_total::cpu0.itb.walker       124852                       # Total bandwidth to/from this memory (bytes/s)
system.mem_ctrls.bw_total::cpu0.inst        676148587                       # Total bandwidth to/from this memory (bytes/s)
system.mem_ctrls.bw_total::cpu0.data        283055733                       # Total bandwidth to/from this memory (bytes/s)
system.mem_ctrls.bw_total::cpu1.dtb.walker       175705                       # Total bandwidth to/from this memory (bytes/s)
system.mem_ctrls.bw_total::cpu1.itb.walker        80443                       # Total bandwidth to/from this memory (bytes/s)
system.mem_ctrls.bw_total::cpu1.inst        142776166                       # Total bandwidth to/from this memory (bytes/s)
system.mem_ctrls.bw_total::cpu1.data         66870199                       # Total bandwidth to/from this memory (bytes/s)
system.mem_ctrls.bw_total::cpu2.dtb.walker       240126                       # Total bandwidth to/from this memory (bytes/s)
system.mem_ctrls.bw_total::cpu2.itb.walker       122077                       # Total bandwidth to/from this memory (bytes/s)
system.mem_ctrls.bw_total::cpu2.inst        203968807                       # Total bandwidth to/from this memory (bytes/s)
system.mem_ctrls.bw_total::cpu2.data         94259071                       # Total bandwidth to/from this memory (bytes/s)
system.mem_ctrls.bw_total::cpu3.dtb.walker       253556                       # Total bandwidth to/from this memory (bytes/s)
system.mem_ctrls.bw_total::cpu3.itb.walker       108532                       # Total bandwidth to/from this memory (bytes/s)
system.mem_ctrls.bw_total::cpu3.inst        279448888                       # Total bandwidth to/from this memory (bytes/s)
system.mem_ctrls.bw_total::cpu3.data        114599133                       # Total bandwidth to/from this memory (bytes/s)
system.mem_ctrls.bw_total::cpu4.dtb.walker       143465                       # Total bandwidth to/from this memory (bytes/s)
system.mem_ctrls.bw_total::cpu4.itb.walker        72230                       # Total bandwidth to/from this memory (bytes/s)
system.mem_ctrls.bw_total::cpu4.inst        356953608                       # Total bandwidth to/from this memory (bytes/s)
system.mem_ctrls.bw_total::cpu4.data        109229847                       # Total bandwidth to/from this memory (bytes/s)
system.mem_ctrls.bw_total::cpu5.dtb.walker       262754                       # Total bandwidth to/from this memory (bytes/s)
system.mem_ctrls.bw_total::cpu5.itb.walker       119721                       # Total bandwidth to/from this memory (bytes/s)
system.mem_ctrls.bw_total::cpu5.inst        377047730                       # Total bandwidth to/from this memory (bytes/s)
system.mem_ctrls.bw_total::cpu5.data        148832173                       # Total bandwidth to/from this memory (bytes/s)
system.mem_ctrls.bw_total::cpu6.dtb.walker       148630                       # Total bandwidth to/from this memory (bytes/s)
system.mem_ctrls.bw_total::cpu6.itb.walker        70974                       # Total bandwidth to/from this memory (bytes/s)
system.mem_ctrls.bw_total::cpu6.inst        348426498                       # Total bandwidth to/from this memory (bytes/s)
system.mem_ctrls.bw_total::cpu6.data        124067607                       # Total bandwidth to/from this memory (bytes/s)
system.mem_ctrls.bw_total::cpu7.dtb.walker       404358                       # Total bandwidth to/from this memory (bytes/s)
system.mem_ctrls.bw_total::cpu7.itb.walker       167924                       # Total bandwidth to/from this memory (bytes/s)
system.mem_ctrls.bw_total::cpu7.inst        514423484                       # Total bandwidth to/from this memory (bytes/s)
system.mem_ctrls.bw_total::cpu7.data        199726232                       # Total bandwidth to/from this memory (bytes/s)
system.mem_ctrls.bw_total::total           4046588310                       # Total bandwidth to/from this memory (bytes/s)
system.mem_ctrls.readReqs                           0                       # Number of read requests accepted
system.mem_ctrls.writeReqs                          0                       # Number of write requests accepted
system.mem_ctrls.readBursts                         0                       # Number of DRAM read bursts, including those serviced by the write queue
system.mem_ctrls.writeBursts                        0                       # Number of DRAM write bursts, including those merged in the write queue
system.mem_ctrls.bytesReadDRAM                      0                       # Total number of bytes read from DRAM
system.mem_ctrls.bytesReadWrQ                       0                       # Total number of bytes read from write queue
system.mem_ctrls.bytesWritten                       0                       # Total number of bytes written to DRAM
system.mem_ctrls.bytesReadSys                       0                       # Total read bytes from the system interface side
system.mem_ctrls.bytesWrittenSys                    0                       # Total written bytes from the system interface side
system.mem_ctrls.servicedByWrQ                      0                       # Number of DRAM read bursts serviced by the write queue
system.mem_ctrls.mergedWrBursts                     0                       # Number of DRAM write bursts merged with an existing one
system.mem_ctrls.neitherReadNorWriteReqs            0                       # Number of requests that are neither read nor write
system.mem_ctrls.perBankRdBursts::0                 0                       # Per bank write bursts
system.mem_ctrls.perBankRdBursts::1                 0                       # Per bank write bursts
system.mem_ctrls.perBankRdBursts::2                 0                       # Per bank write bursts
system.mem_ctrls.perBankRdBursts::3                 0                       # Per bank write bursts
system.mem_ctrls.perBankRdBursts::4                 0                       # Per bank write bursts
system.mem_ctrls.perBankRdBursts::5                 0                       # Per bank write bursts
system.mem_ctrls.perBankRdBursts::6                 0                       # Per bank write bursts
system.mem_ctrls.perBankRdBursts::7                 0                       # Per bank write bursts
system.mem_ctrls.perBankRdBursts::8                 0                       # Per bank write bursts
system.mem_ctrls.perBankRdBursts::9                 0                       # Per bank write bursts
system.mem_ctrls.perBankRdBursts::10                0                       # Per bank write bursts
system.mem_ctrls.perBankRdBursts::11                0                       # Per bank write bursts
system.mem_ctrls.perBankRdBursts::12                0                       # Per bank write bursts
system.mem_ctrls.perBankRdBursts::13                0                       # Per bank write bursts
system.mem_ctrls.perBankRdBursts::14                0                       # Per bank write bursts
system.mem_ctrls.perBankRdBursts::15                0                       # Per bank write bursts
system.mem_ctrls.perBankWrBursts::0                 0                       # Per bank write bursts
system.mem_ctrls.perBankWrBursts::1                 0                       # Per bank write bursts
system.mem_ctrls.perBankWrBursts::2                 0                       # Per bank write bursts
system.mem_ctrls.perBankWrBursts::3                 0                       # Per bank write bursts
system.mem_ctrls.perBankWrBursts::4                 0                       # Per bank write bursts
system.mem_ctrls.perBankWrBursts::5                 0                       # Per bank write bursts
system.mem_ctrls.perBankWrBursts::6                 0                       # Per bank write bursts
system.mem_ctrls.perBankWrBursts::7                 0                       # Per bank write bursts
system.mem_ctrls.perBankWrBursts::8                 0                       # Per bank write bursts
system.mem_ctrls.perBankWrBursts::9                 0                       # Per bank write bursts
system.mem_ctrls.perBankWrBursts::10                0                       # Per bank write bursts
system.mem_ctrls.perBankWrBursts::11                0                       # Per bank write bursts
system.mem_ctrls.perBankWrBursts::12                0                       # Per bank write bursts
system.mem_ctrls.perBankWrBursts::13                0                       # Per bank write bursts
system.mem_ctrls.perBankWrBursts::14                0                       # Per bank write bursts
system.mem_ctrls.perBankWrBursts::15                0                       # Per bank write bursts
system.mem_ctrls.numRdRetry                         0                       # Number of times read queue was full causing retry
system.mem_ctrls.numWrRetry                         0                       # Number of times write queue was full causing retry
system.mem_ctrls.totGap                             0                       # Total gap between requests
system.mem_ctrls.readPktSize::0                     0                       # Read request sizes (log2)
system.mem_ctrls.readPktSize::1                     0                       # Read request sizes (log2)
system.mem_ctrls.readPktSize::2                     0                       # Read request sizes (log2)
system.mem_ctrls.readPktSize::3                     0                       # Read request sizes (log2)
system.mem_ctrls.readPktSize::4                     0                       # Read request sizes (log2)
system.mem_ctrls.readPktSize::5                     0                       # Read request sizes (log2)
system.mem_ctrls.readPktSize::6                     0                       # Read request sizes (log2)
system.mem_ctrls.writePktSize::0                    0                       # Write request sizes (log2)
system.mem_ctrls.writePktSize::1                    0                       # Write request sizes (log2)
system.mem_ctrls.writePktSize::2                    0                       # Write request sizes (log2)
system.mem_ctrls.writePktSize::3                    0                       # Write request sizes (log2)
system.mem_ctrls.writePktSize::4                    0                       # Write request sizes (log2)
system.mem_ctrls.writePktSize::5                    0                       # Write request sizes (log2)
system.mem_ctrls.writePktSize::6                    0                       # Write request sizes (log2)
system.mem_ctrls.rdQLenPdf::0                       0                       # What read queue length does an incoming req see
system.mem_ctrls.rdQLenPdf::1                       0                       # What read queue length does an incoming req see
system.mem_ctrls.rdQLenPdf::2                       0                       # What read queue length does an incoming req see
system.mem_ctrls.rdQLenPdf::3                       0                       # What read queue length does an incoming req see
system.mem_ctrls.rdQLenPdf::4                       0                       # What read queue length does an incoming req see
system.mem_ctrls.rdQLenPdf::5                       0                       # What read queue length does an incoming req see
system.mem_ctrls.rdQLenPdf::6                       0                       # What read queue length does an incoming req see
system.mem_ctrls.rdQLenPdf::7                       0                       # What read queue length does an incoming req see
system.mem_ctrls.rdQLenPdf::8                       0                       # What read queue length does an incoming req see
system.mem_ctrls.rdQLenPdf::9                       0                       # What read queue length does an incoming req see
system.mem_ctrls.rdQLenPdf::10                      0                       # What read queue length does an incoming req see
system.mem_ctrls.rdQLenPdf::11                      0                       # What read queue length does an incoming req see
system.mem_ctrls.rdQLenPdf::12                      0                       # What read queue length does an incoming req see
system.mem_ctrls.rdQLenPdf::13                      0                       # What read queue length does an incoming req see
system.mem_ctrls.rdQLenPdf::14                      0                       # What read queue length does an incoming req see
system.mem_ctrls.rdQLenPdf::15                      0                       # What read queue length does an incoming req see
system.mem_ctrls.rdQLenPdf::16                      0                       # What read queue length does an incoming req see
system.mem_ctrls.rdQLenPdf::17                      0                       # What read queue length does an incoming req see
system.mem_ctrls.rdQLenPdf::18                      0                       # What read queue length does an incoming req see
system.mem_ctrls.rdQLenPdf::19                      0                       # What read queue length does an incoming req see
system.mem_ctrls.rdQLenPdf::20                      0                       # What read queue length does an incoming req see
system.mem_ctrls.rdQLenPdf::21                      0                       # What read queue length does an incoming req see
system.mem_ctrls.rdQLenPdf::22                      0                       # What read queue length does an incoming req see
system.mem_ctrls.rdQLenPdf::23                      0                       # What read queue length does an incoming req see
system.mem_ctrls.rdQLenPdf::24                      0                       # What read queue length does an incoming req see
system.mem_ctrls.rdQLenPdf::25                      0                       # What read queue length does an incoming req see
system.mem_ctrls.rdQLenPdf::26                      0                       # What read queue length does an incoming req see
system.mem_ctrls.rdQLenPdf::27                      0                       # What read queue length does an incoming req see
system.mem_ctrls.rdQLenPdf::28                      0                       # What read queue length does an incoming req see
system.mem_ctrls.rdQLenPdf::29                      0                       # What read queue length does an incoming req see
system.mem_ctrls.rdQLenPdf::30                      0                       # What read queue length does an incoming req see
system.mem_ctrls.rdQLenPdf::31                      0                       # What read queue length does an incoming req see
system.mem_ctrls.wrQLenPdf::0                       0                       # What write queue length does an incoming req see
system.mem_ctrls.wrQLenPdf::1                       0                       # What write queue length does an incoming req see
system.mem_ctrls.wrQLenPdf::2                       0                       # What write queue length does an incoming req see
system.mem_ctrls.wrQLenPdf::3                       0                       # What write queue length does an incoming req see
system.mem_ctrls.wrQLenPdf::4                       0                       # What write queue length does an incoming req see
system.mem_ctrls.wrQLenPdf::5                       0                       # What write queue length does an incoming req see
system.mem_ctrls.wrQLenPdf::6                       0                       # What write queue length does an incoming req see
system.mem_ctrls.wrQLenPdf::7                       0                       # What write queue length does an incoming req see
system.mem_ctrls.wrQLenPdf::8                       0                       # What write queue length does an incoming req see
system.mem_ctrls.wrQLenPdf::9                       0                       # What write queue length does an incoming req see
system.mem_ctrls.wrQLenPdf::10                      0                       # What write queue length does an incoming req see
system.mem_ctrls.wrQLenPdf::11                      0                       # What write queue length does an incoming req see
system.mem_ctrls.wrQLenPdf::12                      0                       # What write queue length does an incoming req see
system.mem_ctrls.wrQLenPdf::13                      0                       # What write queue length does an incoming req see
system.mem_ctrls.wrQLenPdf::14                      0                       # What write queue length does an incoming req see
system.mem_ctrls.wrQLenPdf::15                      0                       # What write queue length does an incoming req see
system.mem_ctrls.wrQLenPdf::16                      0                       # What write queue length does an incoming req see
system.mem_ctrls.wrQLenPdf::17                      0                       # What write queue length does an incoming req see
system.mem_ctrls.wrQLenPdf::18                      0                       # What write queue length does an incoming req see
system.mem_ctrls.wrQLenPdf::19                      0                       # What write queue length does an incoming req see
system.mem_ctrls.wrQLenPdf::20                      0                       # What write queue length does an incoming req see
system.mem_ctrls.wrQLenPdf::21                      0                       # What write queue length does an incoming req see
system.mem_ctrls.wrQLenPdf::22                      0                       # What write queue length does an incoming req see
system.mem_ctrls.wrQLenPdf::23                      0                       # What write queue length does an incoming req see
system.mem_ctrls.wrQLenPdf::24                      0                       # What write queue length does an incoming req see
system.mem_ctrls.wrQLenPdf::25                      0                       # What write queue length does an incoming req see
system.mem_ctrls.wrQLenPdf::26                      0                       # What write queue length does an incoming req see
system.mem_ctrls.wrQLenPdf::27                      0                       # What write queue length does an incoming req see
system.mem_ctrls.wrQLenPdf::28                      0                       # What write queue length does an incoming req see
system.mem_ctrls.wrQLenPdf::29                      0                       # What write queue length does an incoming req see
system.mem_ctrls.wrQLenPdf::30                      0                       # What write queue length does an incoming req see
system.mem_ctrls.wrQLenPdf::31                      0                       # What write queue length does an incoming req see
system.mem_ctrls.wrQLenPdf::32                      0                       # What write queue length does an incoming req see
system.mem_ctrls.wrQLenPdf::33                      0                       # What write queue length does an incoming req see
system.mem_ctrls.wrQLenPdf::34                      0                       # What write queue length does an incoming req see
system.mem_ctrls.wrQLenPdf::35                      0                       # What write queue length does an incoming req see
system.mem_ctrls.wrQLenPdf::36                      0                       # What write queue length does an incoming req see
system.mem_ctrls.wrQLenPdf::37                      0                       # What write queue length does an incoming req see
system.mem_ctrls.wrQLenPdf::38                      0                       # What write queue length does an incoming req see
system.mem_ctrls.wrQLenPdf::39                      0                       # What write queue length does an incoming req see
system.mem_ctrls.wrQLenPdf::40                      0                       # What write queue length does an incoming req see
system.mem_ctrls.wrQLenPdf::41                      0                       # What write queue length does an incoming req see
system.mem_ctrls.wrQLenPdf::42                      0                       # What write queue length does an incoming req see
system.mem_ctrls.wrQLenPdf::43                      0                       # What write queue length does an incoming req see
system.mem_ctrls.wrQLenPdf::44                      0                       # What write queue length does an incoming req see
system.mem_ctrls.wrQLenPdf::45                      0                       # What write queue length does an incoming req see
system.mem_ctrls.wrQLenPdf::46                      0                       # What write queue length does an incoming req see
system.mem_ctrls.wrQLenPdf::47                      0                       # What write queue length does an incoming req see
system.mem_ctrls.wrQLenPdf::48                      0                       # What write queue length does an incoming req see
system.mem_ctrls.wrQLenPdf::49                      0                       # What write queue length does an incoming req see
system.mem_ctrls.wrQLenPdf::50                      0                       # What write queue length does an incoming req see
system.mem_ctrls.wrQLenPdf::51                      0                       # What write queue length does an incoming req see
system.mem_ctrls.wrQLenPdf::52                      0                       # What write queue length does an incoming req see
system.mem_ctrls.wrQLenPdf::53                      0                       # What write queue length does an incoming req see
system.mem_ctrls.wrQLenPdf::54                      0                       # What write queue length does an incoming req see
system.mem_ctrls.wrQLenPdf::55                      0                       # What write queue length does an incoming req see
system.mem_ctrls.wrQLenPdf::56                      0                       # What write queue length does an incoming req see
system.mem_ctrls.wrQLenPdf::57                      0                       # What write queue length does an incoming req see
system.mem_ctrls.wrQLenPdf::58                      0                       # What write queue length does an incoming req see
system.mem_ctrls.wrQLenPdf::59                      0                       # What write queue length does an incoming req see
system.mem_ctrls.wrQLenPdf::60                      0                       # What write queue length does an incoming req see
system.mem_ctrls.wrQLenPdf::61                      0                       # What write queue length does an incoming req see
system.mem_ctrls.wrQLenPdf::62                      0                       # What write queue length does an incoming req see
system.mem_ctrls.wrQLenPdf::63                      0                       # What write queue length does an incoming req see
system.mem_ctrls.totQLat                            0                       # Total ticks spent queuing
system.mem_ctrls.totMemAccLat                       0                       # Total ticks spent from burst creation until serviced by the DRAM
system.mem_ctrls.totBusLat                          0                       # Total ticks spent in databus transfers
system.mem_ctrls.avgQLat                          nan                       # Average queueing delay per DRAM burst
system.mem_ctrls.avgBusLat                        nan                       # Average bus latency per DRAM burst
system.mem_ctrls.avgMemAccLat                     nan                       # Average memory access latency per DRAM burst
system.mem_ctrls.avgRdBW                         0.00                       # Average DRAM read bandwidth in MiByte/s
system.mem_ctrls.avgWrBW                         0.00                       # Average achieved write bandwidth in MiByte/s
system.mem_ctrls.avgRdBWSys                      0.00                       # Average system read bandwidth in MiByte/s
system.mem_ctrls.avgWrBWSys                      0.00                       # Average system write bandwidth in MiByte/s
system.mem_ctrls.peakBW                      12800.00                       # Theoretical peak bandwidth in MiByte/s
system.mem_ctrls.busUtil                         0.00                       # Data bus utilization in percentage
system.mem_ctrls.busUtilRead                     0.00                       # Data bus utilization in percentage for reads
system.mem_ctrls.busUtilWrite                    0.00                       # Data bus utilization in percentage for writes
system.mem_ctrls.avgRdQLen                       0.00                       # Average read queue length when enqueuing
system.mem_ctrls.avgWrQLen                       0.00                       # Average write queue length when enqueuing
system.mem_ctrls.readRowHits                        0                       # Number of row buffer hits during reads
system.mem_ctrls.writeRowHits                       0                       # Number of row buffer hits during writes
system.mem_ctrls.readRowHitRate                   nan                       # Row buffer hit rate for reads
system.mem_ctrls.writeRowHitRate                  nan                       # Row buffer hit rate for writes
system.mem_ctrls.avgGap                           nan                       # Average gap between requests
system.mem_ctrls.pageHitRate                      nan                       # Row buffer hit rate, read and write combined
system.mem_ctrls.memoryStateTime::IDLE   3269026947500                       # Time in different power states
system.mem_ctrls.memoryStateTime::REF    112931000000                       # Time in different power states
system.mem_ctrls.memoryStateTime::PRE_PDN            0                       # Time in different power states
system.mem_ctrls.memoryStateTime::ACT               0                       # Time in different power states
system.mem_ctrls.memoryStateTime::ACT_PDN            0                       # Time in different power states
system.mem_ctrls.actEnergy::0                       0                       # Energy for activate commands per rank (pJ)
system.mem_ctrls.actEnergy::1                       0                       # Energy for activate commands per rank (pJ)
system.mem_ctrls.preEnergy::0                       0                       # Energy for precharge commands per rank (pJ)
system.mem_ctrls.preEnergy::1                       0                       # Energy for precharge commands per rank (pJ)
system.mem_ctrls.readEnergy::0                      0                       # Energy for read commands per rank (pJ)
system.mem_ctrls.readEnergy::1                      0                       # Energy for read commands per rank (pJ)
system.mem_ctrls.writeEnergy::0                     0                       # Energy for write commands per rank (pJ)
system.mem_ctrls.writeEnergy::1                     0                       # Energy for write commands per rank (pJ)
system.mem_ctrls.refreshEnergy::0        220893036000                       # Energy for refresh commands per rank (pJ)
system.mem_ctrls.refreshEnergy::1        220893036000                       # Energy for refresh commands per rank (pJ)
system.mem_ctrls.actBackEnergy::0         73159742250                       # Energy for active background per rank (pJ)
system.mem_ctrls.actBackEnergy::1         73159742250                       # Energy for active background per rank (pJ)
system.mem_ctrls.preBackEnergy::0        1964999547750                       # Energy for precharge background per rank (pJ)
system.mem_ctrls.preBackEnergy::1        1964999547750                       # Energy for precharge background per rank (pJ)
system.mem_ctrls.totalEnergy::0          2259052326000                       # Total energy per rank (pJ)
system.mem_ctrls.totalEnergy::1          2259052326000                       # Total energy per rank (pJ)
system.mem_ctrls.averagePower::0           667.971740                       # Core power per rank (mW)
system.mem_ctrls.averagePower::1           667.971740                       # Core power per rank (mW)
system.membus.trans_dist::ReadReq          3078986886                       # Transaction distribution
system.membus.trans_dist::ReadResp         3084240722                       # Transaction distribution
system.membus.trans_dist::WriteReq          298277970                       # Transaction distribution
system.membus.trans_dist::WriteResp         298277970                       # Transaction distribution
system.membus.trans_dist::SoftPFReq           5556924                       # Transaction distribution
system.membus.trans_dist::SoftPFResp          5556924                       # Transaction distribution
system.membus.trans_dist::LoadLockedReq       5253836                       # Transaction distribution
system.membus.trans_dist::StoreCondReq        5217379                       # Transaction distribution
system.membus.trans_dist::StoreCondResp       5217379                       # Transaction distribution
system.membus.pkt_count_system.iobridge.master::system.mem_ctrls.port       399630                       # Packet count per connected master and slave (bytes)
system.membus.pkt_count_system.iobridge.master::total       399630                       # Packet count per connected master and slave (bytes)
system.membus.pkt_count_system.cpu0.icache_port::system.realview.nvmem.port           10                       # Packet count per connected master and slave (bytes)
system.membus.pkt_count_system.cpu0.icache_port::system.mem_ctrls.port   1143355000                       # Packet count per connected master and slave (bytes)
system.membus.pkt_count_system.cpu0.icache_port::total   1143355010                       # Packet count per connected master and slave (bytes)
system.membus.pkt_count_system.cpu0.dcache_port::system.bridge.slave       146888                       # Packet count per connected master and slave (bytes)
system.membus.pkt_count_system.cpu0.dcache_port::system.realview.gic.pio        17312                       # Packet count per connected master and slave (bytes)
system.membus.pkt_count_system.cpu0.dcache_port::system.mem_ctrls.port    454066166                       # Packet count per connected master and slave (bytes)
system.membus.pkt_count_system.cpu0.dcache_port::total    454230366                       # Packet count per connected master and slave (bytes)
system.membus.pkt_count_system.cpu0.itb.walker.dma::system.mem_ctrls.port       211122                       # Packet count per connected master and slave (bytes)
system.membus.pkt_count_system.cpu0.itb.walker.dma::total       211122                       # Packet count per connected master and slave (bytes)
system.membus.pkt_count_system.cpu0.dtb.walker.dma::system.mem_ctrls.port       879806                       # Packet count per connected master and slave (bytes)
system.membus.pkt_count_system.cpu0.dtb.walker.dma::total       879806                       # Packet count per connected master and slave (bytes)
system.membus.pkt_count_system.cpu1.icache_port::system.realview.nvmem.port           24                       # Packet count per connected master and slave (bytes)
system.membus.pkt_count_system.cpu1.icache_port::system.mem_ctrls.port    241431908                       # Packet count per connected master and slave (bytes)
system.membus.pkt_count_system.cpu1.icache_port::total    241431932                       # Packet count per connected master and slave (bytes)
system.membus.pkt_count_system.cpu1.dcache_port::system.bridge.slave         1478                       # Packet count per connected master and slave (bytes)
system.membus.pkt_count_system.cpu1.dcache_port::system.realview.gic.pio        11082                       # Packet count per connected master and slave (bytes)
system.membus.pkt_count_system.cpu1.dcache_port::system.mem_ctrls.port    106115412                       # Packet count per connected master and slave (bytes)
system.membus.pkt_count_system.cpu1.dcache_port::total    106127972                       # Packet count per connected master and slave (bytes)
system.membus.pkt_count_system.cpu1.itb.walker.dma::system.mem_ctrls.port       136028                       # Packet count per connected master and slave (bytes)
system.membus.pkt_count_system.cpu1.itb.walker.dma::total       136028                       # Packet count per connected master and slave (bytes)
system.membus.pkt_count_system.cpu1.dtb.walker.dma::system.mem_ctrls.port       297114                       # Packet count per connected master and slave (bytes)
system.membus.pkt_count_system.cpu1.dtb.walker.dma::total       297114                       # Packet count per connected master and slave (bytes)
system.membus.pkt_count_system.cpu2.icache_port::system.realview.nvmem.port           24                       # Packet count per connected master and slave (bytes)
system.membus.pkt_count_system.cpu2.icache_port::system.mem_ctrls.port    344907554                       # Packet count per connected master and slave (bytes)
system.membus.pkt_count_system.cpu2.icache_port::total    344907578                       # Packet count per connected master and slave (bytes)
system.membus.pkt_count_system.cpu2.dcache_port::system.bridge.slave         1262                       # Packet count per connected master and slave (bytes)
system.membus.pkt_count_system.cpu2.dcache_port::system.realview.gic.pio         5294                       # Packet count per connected master and slave (bytes)
system.membus.pkt_count_system.cpu2.dcache_port::system.mem_ctrls.port    150640514                       # Packet count per connected master and slave (bytes)
system.membus.pkt_count_system.cpu2.dcache_port::total    150647070                       # Packet count per connected master and slave (bytes)
system.membus.pkt_count_system.cpu2.itb.walker.dma::system.mem_ctrls.port       206430                       # Packet count per connected master and slave (bytes)
system.membus.pkt_count_system.cpu2.itb.walker.dma::total       206430                       # Packet count per connected master and slave (bytes)
system.membus.pkt_count_system.cpu2.dtb.walker.dma::system.mem_ctrls.port       406048                       # Packet count per connected master and slave (bytes)
system.membus.pkt_count_system.cpu2.dtb.walker.dma::total       406048                       # Packet count per connected master and slave (bytes)
system.membus.pkt_count_system.cpu3.icache_port::system.realview.nvmem.port           24                       # Packet count per connected master and slave (bytes)
system.membus.pkt_count_system.cpu3.icache_port::system.mem_ctrls.port    472543002                       # Packet count per connected master and slave (bytes)
system.membus.pkt_count_system.cpu3.icache_port::total    472543026                       # Packet count per connected master and slave (bytes)
system.membus.pkt_count_system.cpu3.dcache_port::system.bridge.slave         1586                       # Packet count per connected master and slave (bytes)
system.membus.pkt_count_system.cpu3.dcache_port::system.realview.gic.pio         6794                       # Packet count per connected master and slave (bytes)
system.membus.pkt_count_system.cpu3.dcache_port::system.mem_ctrls.port    188205344                       # Packet count per connected master and slave (bytes)
system.membus.pkt_count_system.cpu3.dcache_port::total    188213724                       # Packet count per connected master and slave (bytes)
system.membus.pkt_count_system.cpu3.itb.walker.dma::system.mem_ctrls.port       183526                       # Packet count per connected master and slave (bytes)
system.membus.pkt_count_system.cpu3.itb.walker.dma::total       183526                       # Packet count per connected master and slave (bytes)
system.membus.pkt_count_system.cpu3.dtb.walker.dma::system.mem_ctrls.port       428758                       # Packet count per connected master and slave (bytes)
system.membus.pkt_count_system.cpu3.dtb.walker.dma::total       428758                       # Packet count per connected master and slave (bytes)
system.membus.pkt_count_system.cpu4.icache_port::system.realview.nvmem.port           24                       # Packet count per connected master and slave (bytes)
system.membus.pkt_count_system.cpu4.icache_port::system.mem_ctrls.port    603602078                       # Packet count per connected master and slave (bytes)
system.membus.pkt_count_system.cpu4.icache_port::total    603602102                       # Packet count per connected master and slave (bytes)
system.membus.pkt_count_system.cpu4.dcache_port::system.bridge.slave          796                       # Packet count per connected master and slave (bytes)
system.membus.pkt_count_system.cpu4.dcache_port::system.realview.gic.pio         6318                       # Packet count per connected master and slave (bytes)
system.membus.pkt_count_system.cpu4.dcache_port::system.mem_ctrls.port    197262000                       # Packet count per connected master and slave (bytes)
system.membus.pkt_count_system.cpu4.dcache_port::total    197269114                       # Packet count per connected master and slave (bytes)
system.membus.pkt_count_system.cpu4.itb.walker.dma::system.mem_ctrls.port       122140                       # Packet count per connected master and slave (bytes)
system.membus.pkt_count_system.cpu4.itb.walker.dma::total       122140                       # Packet count per connected master and slave (bytes)
system.membus.pkt_count_system.cpu4.dtb.walker.dma::system.mem_ctrls.port       242596                       # Packet count per connected master and slave (bytes)
system.membus.pkt_count_system.cpu4.dtb.walker.dma::total       242596                       # Packet count per connected master and slave (bytes)
system.membus.pkt_count_system.cpu5.icache_port::system.realview.nvmem.port           24                       # Packet count per connected master and slave (bytes)
system.membus.pkt_count_system.cpu5.icache_port::system.mem_ctrls.port    637580874                       # Packet count per connected master and slave (bytes)
system.membus.pkt_count_system.cpu5.icache_port::total    637580898                       # Packet count per connected master and slave (bytes)
system.membus.pkt_count_system.cpu5.dcache_port::system.bridge.slave         3204                       # Packet count per connected master and slave (bytes)
system.membus.pkt_count_system.cpu5.dcache_port::system.realview.gic.pio         6804                       # Packet count per connected master and slave (bytes)
system.membus.pkt_count_system.cpu5.dcache_port::system.mem_ctrls.port    243400506                       # Packet count per connected master and slave (bytes)
system.membus.pkt_count_system.cpu5.dcache_port::total    243410514                       # Packet count per connected master and slave (bytes)
system.membus.pkt_count_system.cpu5.itb.walker.dma::system.mem_ctrls.port       202446                       # Packet count per connected master and slave (bytes)
system.membus.pkt_count_system.cpu5.itb.walker.dma::total       202446                       # Packet count per connected master and slave (bytes)
system.membus.pkt_count_system.cpu5.dtb.walker.dma::system.mem_ctrls.port       444312                       # Packet count per connected master and slave (bytes)
system.membus.pkt_count_system.cpu5.dtb.walker.dma::total       444312                       # Packet count per connected master and slave (bytes)
system.membus.pkt_count_system.cpu6.icache_port::system.realview.nvmem.port           24                       # Packet count per connected master and slave (bytes)
system.membus.pkt_count_system.cpu6.icache_port::system.mem_ctrls.port    589182890                       # Packet count per connected master and slave (bytes)
system.membus.pkt_count_system.cpu6.icache_port::total    589182914                       # Packet count per connected master and slave (bytes)
system.membus.pkt_count_system.cpu6.dcache_port::system.bridge.slave         2342                       # Packet count per connected master and slave (bytes)
system.membus.pkt_count_system.cpu6.dcache_port::system.realview.gic.pio         4888                       # Packet count per connected master and slave (bytes)
system.membus.pkt_count_system.cpu6.dcache_port::system.mem_ctrls.port    208559964                       # Packet count per connected master and slave (bytes)
system.membus.pkt_count_system.cpu6.dcache_port::total    208567194                       # Packet count per connected master and slave (bytes)
system.membus.pkt_count_system.cpu6.itb.walker.dma::system.mem_ctrls.port       120016                       # Packet count per connected master and slave (bytes)
system.membus.pkt_count_system.cpu6.itb.walker.dma::total       120016                       # Packet count per connected master and slave (bytes)
system.membus.pkt_count_system.cpu6.dtb.walker.dma::system.mem_ctrls.port       251330                       # Packet count per connected master and slave (bytes)
system.membus.pkt_count_system.cpu6.dtb.walker.dma::total       251330                       # Packet count per connected master and slave (bytes)
system.membus.pkt_count_system.cpu7.icache_port::system.realview.nvmem.port           24                       # Packet count per connected master and slave (bytes)
system.membus.pkt_count_system.cpu7.icache_port::system.mem_ctrls.port    869880784                       # Packet count per connected master and slave (bytes)
system.membus.pkt_count_system.cpu7.icache_port::total    869880808                       # Packet count per connected master and slave (bytes)
system.membus.pkt_count_system.cpu7.dcache_port::system.bridge.slave         1658                       # Packet count per connected master and slave (bytes)
system.membus.pkt_count_system.cpu7.dcache_port::system.realview.gic.pio         5360                       # Packet count per connected master and slave (bytes)
system.membus.pkt_count_system.cpu7.dcache_port::system.mem_ctrls.port    330129730                       # Packet count per connected master and slave (bytes)
system.membus.pkt_count_system.cpu7.dcache_port::total    330136748                       # Packet count per connected master and slave (bytes)
system.membus.pkt_count_system.cpu7.itb.walker.dma::system.mem_ctrls.port       283956                       # Packet count per connected master and slave (bytes)
system.membus.pkt_count_system.cpu7.itb.walker.dma::total       283956                       # Packet count per connected master and slave (bytes)
system.membus.pkt_count_system.cpu7.dtb.walker.dma::system.mem_ctrls.port       683762                       # Packet count per connected master and slave (bytes)
system.membus.pkt_count_system.cpu7.dtb.walker.dma::total       683762                       # Packet count per connected master and slave (bytes)
system.membus.pkt_count::total             6786585990                       # Packet count per connected master and slave (bytes)
system.membus.pkt_size_system.iobridge.master::system.mem_ctrls.port     12644856                       # Cumulative packet size per connected master and slave (bytes)
system.membus.pkt_size_system.iobridge.master::total     12644856                       # Cumulative packet size per connected master and slave (bytes)
system.membus.pkt_size_system.cpu0.icache_port::system.realview.nvmem.port           20                       # Cumulative packet size per connected master and slave (bytes)
system.membus.pkt_size_system.cpu0.icache_port::system.mem_ctrls.port   2286710000                       # Cumulative packet size per connected master and slave (bytes)
system.membus.pkt_size_system.cpu0.icache_port::total   2286710020                       # Cumulative packet size per connected master and slave (bytes)
system.membus.pkt_size_system.cpu0.dcache_port::system.bridge.slave       185167                       # Cumulative packet size per connected master and slave (bytes)
system.membus.pkt_size_system.cpu0.dcache_port::system.realview.gic.pio        34624                       # Cumulative packet size per connected master and slave (bytes)
system.membus.pkt_size_system.cpu0.dcache_port::system.mem_ctrls.port    957284480                       # Cumulative packet size per connected master and slave (bytes)
system.membus.pkt_size_system.cpu0.dcache_port::total    957504271                       # Cumulative packet size per connected master and slave (bytes)
system.membus.pkt_size_system.cpu0.itb.walker.dma::system.mem_ctrls.port       422244                       # Cumulative packet size per connected master and slave (bytes)
system.membus.pkt_size_system.cpu0.itb.walker.dma::total       422244                       # Cumulative packet size per connected master and slave (bytes)
system.membus.pkt_size_system.cpu0.dtb.walker.dma::system.mem_ctrls.port      1759612                       # Cumulative packet size per connected master and slave (bytes)
system.membus.pkt_size_system.cpu0.dtb.walker.dma::total      1759612                       # Cumulative packet size per connected master and slave (bytes)
system.membus.pkt_size_system.cpu1.icache_port::system.realview.nvmem.port           48                       # Cumulative packet size per connected master and slave (bytes)
system.membus.pkt_size_system.cpu1.icache_port::system.mem_ctrls.port    482863816                       # Cumulative packet size per connected master and slave (bytes)
system.membus.pkt_size_system.cpu1.icache_port::total    482863864                       # Cumulative packet size per connected master and slave (bytes)
system.membus.pkt_size_system.cpu1.dcache_port::system.bridge.slave          865                       # Cumulative packet size per connected master and slave (bytes)
system.membus.pkt_size_system.cpu1.dcache_port::system.realview.gic.pio        22164                       # Cumulative packet size per connected master and slave (bytes)
system.membus.pkt_size_system.cpu1.dcache_port::system.mem_ctrls.port    226152813                       # Cumulative packet size per connected master and slave (bytes)
system.membus.pkt_size_system.cpu1.dcache_port::total    226175842                       # Cumulative packet size per connected master and slave (bytes)
system.membus.pkt_size_system.cpu1.itb.walker.dma::system.mem_ctrls.port       272056                       # Cumulative packet size per connected master and slave (bytes)
system.membus.pkt_size_system.cpu1.itb.walker.dma::total       272056                       # Cumulative packet size per connected master and slave (bytes)
system.membus.pkt_size_system.cpu1.dtb.walker.dma::system.mem_ctrls.port       594228                       # Cumulative packet size per connected master and slave (bytes)
system.membus.pkt_size_system.cpu1.dtb.walker.dma::total       594228                       # Cumulative packet size per connected master and slave (bytes)
system.membus.pkt_size_system.cpu2.icache_port::system.realview.nvmem.port           48                       # Cumulative packet size per connected master and slave (bytes)
system.membus.pkt_size_system.cpu2.icache_port::system.mem_ctrls.port    689815108                       # Cumulative packet size per connected master and slave (bytes)
system.membus.pkt_size_system.cpu2.icache_port::total    689815156                       # Cumulative packet size per connected master and slave (bytes)
system.membus.pkt_size_system.cpu2.dcache_port::system.bridge.slave          739                       # Cumulative packet size per connected master and slave (bytes)
system.membus.pkt_size_system.cpu2.dcache_port::system.realview.gic.pio        10588                       # Cumulative packet size per connected master and slave (bytes)
system.membus.pkt_size_system.cpu2.dcache_port::system.mem_ctrls.port    318780776                       # Cumulative packet size per connected master and slave (bytes)
system.membus.pkt_size_system.cpu2.dcache_port::total    318792103                       # Cumulative packet size per connected master and slave (bytes)
system.membus.pkt_size_system.cpu2.itb.walker.dma::system.mem_ctrls.port       412860                       # Cumulative packet size per connected master and slave (bytes)
system.membus.pkt_size_system.cpu2.itb.walker.dma::total       412860                       # Cumulative packet size per connected master and slave (bytes)
system.membus.pkt_size_system.cpu2.dtb.walker.dma::system.mem_ctrls.port       812096                       # Cumulative packet size per connected master and slave (bytes)
system.membus.pkt_size_system.cpu2.dtb.walker.dma::total       812096                       # Cumulative packet size per connected master and slave (bytes)
system.membus.pkt_size_system.cpu3.icache_port::system.realview.nvmem.port           48                       # Cumulative packet size per connected master and slave (bytes)
system.membus.pkt_size_system.cpu3.icache_port::system.mem_ctrls.port    945086004                       # Cumulative packet size per connected master and slave (bytes)
system.membus.pkt_size_system.cpu3.icache_port::total    945086052                       # Cumulative packet size per connected master and slave (bytes)
system.membus.pkt_size_system.cpu3.dcache_port::system.bridge.slave          928                       # Cumulative packet size per connected master and slave (bytes)
system.membus.pkt_size_system.cpu3.dcache_port::system.realview.gic.pio        13588                       # Cumulative packet size per connected master and slave (bytes)
system.membus.pkt_size_system.cpu3.dcache_port::system.mem_ctrls.port    387570347                       # Cumulative packet size per connected master and slave (bytes)
system.membus.pkt_size_system.cpu3.dcache_port::total    387584863                       # Cumulative packet size per connected master and slave (bytes)
system.membus.pkt_size_system.cpu3.itb.walker.dma::system.mem_ctrls.port       367052                       # Cumulative packet size per connected master and slave (bytes)
system.membus.pkt_size_system.cpu3.itb.walker.dma::total       367052                       # Cumulative packet size per connected master and slave (bytes)
system.membus.pkt_size_system.cpu3.dtb.walker.dma::system.mem_ctrls.port       857516                       # Cumulative packet size per connected master and slave (bytes)
system.membus.pkt_size_system.cpu3.dtb.walker.dma::total       857516                       # Cumulative packet size per connected master and slave (bytes)
system.membus.pkt_size_system.cpu4.icache_port::system.realview.nvmem.port           48                       # Cumulative packet size per connected master and slave (bytes)
system.membus.pkt_size_system.cpu4.icache_port::system.mem_ctrls.port   1207204156                       # Cumulative packet size per connected master and slave (bytes)
system.membus.pkt_size_system.cpu4.icache_port::total   1207204204                       # Cumulative packet size per connected master and slave (bytes)
system.membus.pkt_size_system.cpu4.dcache_port::system.bridge.slave          468                       # Cumulative packet size per connected master and slave (bytes)
system.membus.pkt_size_system.cpu4.dcache_port::system.realview.gic.pio        12636                       # Cumulative packet size per connected master and slave (bytes)
system.membus.pkt_size_system.cpu4.dcache_port::system.mem_ctrls.port    369411422                       # Cumulative packet size per connected master and slave (bytes)
system.membus.pkt_size_system.cpu4.dcache_port::total    369424526                       # Cumulative packet size per connected master and slave (bytes)
system.membus.pkt_size_system.cpu4.itb.walker.dma::system.mem_ctrls.port       244280                       # Cumulative packet size per connected master and slave (bytes)
system.membus.pkt_size_system.cpu4.itb.walker.dma::total       244280                       # Cumulative packet size per connected master and slave (bytes)
system.membus.pkt_size_system.cpu4.dtb.walker.dma::system.mem_ctrls.port       485192                       # Cumulative packet size per connected master and slave (bytes)
[...]
system.cpu6.op_class::IntAlu                  3392738     80.77%     80.77% # Class of executed instruction
system.cpu6.op_class::IntMult                   33014      0.79%     81.56% # Class of executed instruction
system.cpu6.op_class::IntDiv                        0      0.00%     81.56% # Class of executed instruction
system.cpu6.op_class::FloatAdd                      0      0.00%     81.56% # Class of executed instruction
system.cpu6.op_class::FloatCmp                      0      0.00%     81.56% # Class of executed instruction
system.cpu6.op_class::FloatCvt                      0      0.00%     81.56% # Class of executed instruction
system.cpu6.op_class::FloatMult                     0      0.00%     81.56% # Class of executed instruction
system.cpu6.op_class::FloatDiv                      0      0.00%     81.56% # Class of executed instruction
system.cpu6.op_class::FloatSqrt                     0      0.00%     81.56% # Class of executed instruction
system.cpu6.op_class::SimdAdd                       0      0.00%     81.56% # Class of executed instruction
system.cpu6.op_class::SimdAddAcc                    0      0.00%     81.56% # Class of executed instruction
system.cpu6.op_class::SimdAlu                       0      0.00%     81.56% # Class of executed instruction
system.cpu6.op_class::SimdCmp                       0      0.00%     81.56% # Class of executed instruction
system.cpu6.op_class::SimdCvt                       0      0.00%     81.56% # Class of executed instruction
system.cpu6.op_class::SimdMisc                      0      0.00%     81.56% # Class of executed instruction
system.cpu6.op_class::SimdMult                      0      0.00%     81.56% # Class of executed instruction
system.cpu6.op_class::SimdMultAcc                   0      0.00%     81.56% # Class of executed instruction
system.cpu6.op_class::SimdShift                     0      0.00%     81.56% # Class of executed instruction
system.cpu6.op_class::SimdShiftAcc                  0      0.00%     81.56% # Class of executed instruction
system.cpu6.op_class::SimdSqrt                      0      0.00%     81.56% # Class of executed instruction
system.cpu6.op_class::SimdFloatAdd                  0      0.00%     81.56% # Class of executed instruction
system.cpu6.op_class::SimdFloatAlu                  0      0.00%     81.56% # Class of executed instruction
system.cpu6.op_class::SimdFloatCmp                  0      0.00%     81.56% # Class of executed instruction
system.cpu6.op_class::SimdFloatCvt                  0      0.00%     81.56% # Class of executed instruction
system.cpu6.op_class::SimdFloatDiv                  0      0.00%     81.56% # Class of executed instruction
system.cpu6.op_class::SimdFloatMisc                17      0.00%     81.56% # Class of executed instruction
system.cpu6.op_class::SimdFloatMult                 0      0.00%     81.56% # Class of executed instruction
system.cpu6.op_class::SimdFloatMultAcc              0      0.00%     81.56% # Class of executed instruction
system.cpu6.op_class::SimdFloatSqrt                 0      0.00%     81.56% # Class of executed instruction
system.cpu6.op_class::MemRead                  534972     12.74%     94.30% # Class of executed instruction
system.cpu6.op_class::MemWrite                 239532      5.70%    100.00% # Class of executed instruction
system.cpu6.op_class::IprAccess                     0      0.00%    100.00% # Class of executed instruction
system.cpu6.op_class::InstPrefetch                  0      0.00%    100.00% # Class of executed instruction
system.cpu6.op_class::total                   4200274                       # Class of executed instruction
system.cpu6.kern.inst.arm                           0                       # number of arm instructions executed
system.cpu6.kern.inst.quiesce                     145                       # number of quiesce instructions executed
system.cpu7.dstage2_mmu.stage2_tlb.inst_hits            0                       # ITB inst hits
system.cpu7.dstage2_mmu.stage2_tlb.inst_misses            0                       # ITB inst misses
system.cpu7.dstage2_mmu.stage2_tlb.read_hits            0                       # DTB read hits
system.cpu7.dstage2_mmu.stage2_tlb.read_misses            0                       # DTB read misses
system.cpu7.dstage2_mmu.stage2_tlb.write_hits            0                       # DTB write hits
system.cpu7.dstage2_mmu.stage2_tlb.write_misses            0                       # DTB write misses
system.cpu7.dstage2_mmu.stage2_tlb.flush_tlb            0                       # Number of times complete TLB was flushed
system.cpu7.dstage2_mmu.stage2_tlb.flush_tlb_mva            0                       # Number of times TLB was flushed by MVA
system.cpu7.dstage2_mmu.stage2_tlb.flush_tlb_mva_asid            0                       # Number of times TLB was flushed by MVA & ASID
system.cpu7.dstage2_mmu.stage2_tlb.flush_tlb_asid            0                       # Number of times TLB was flushed by ASID
system.cpu7.dstage2_mmu.stage2_tlb.flush_entries            0                       # Number of entries that have been flushed from TLB
system.cpu7.dstage2_mmu.stage2_tlb.align_faults            0                       # Number of TLB faults due to alignment restrictions
system.cpu7.dstage2_mmu.stage2_tlb.prefetch_faults            0                       # Number of TLB faults due to prefetch
system.cpu7.dstage2_mmu.stage2_tlb.domain_faults            0                       # Number of TLB faults due to domain restrictions
system.cpu7.dstage2_mmu.stage2_tlb.perms_faults            0                       # Number of TLB faults due to permissions restrictions
system.cpu7.dstage2_mmu.stage2_tlb.read_accesses            0                       # DTB read accesses
system.cpu7.dstage2_mmu.stage2_tlb.write_accesses            0                       # DTB write accesses
system.cpu7.dstage2_mmu.stage2_tlb.inst_accesses            0                       # ITB inst accesses
system.cpu7.dstage2_mmu.stage2_tlb.hits             0                       # DTB hits
system.cpu7.dstage2_mmu.stage2_tlb.misses            0                       # DTB misses
system.cpu7.dstage2_mmu.stage2_tlb.accesses            0                       # DTB accesses
system.cpu7.dtb.inst_hits                           0                       # ITB inst hits
system.cpu7.dtb.inst_misses                         0                       # ITB inst misses
system.cpu7.dtb.read_hits                      542942                       # DTB read hits
system.cpu7.dtb.read_misses                      1040                       # DTB read misses
system.cpu7.dtb.write_hits                     295470                       # DTB write hits
system.cpu7.dtb.write_misses                     1933                       # DTB write misses
system.cpu7.dtb.flush_tlb                          13                       # Number of times complete TLB was flushed
system.cpu7.dtb.flush_tlb_mva                     141                       # Number of times TLB was flushed by MVA
system.cpu7.dtb.flush_tlb_mva_asid                  0                       # Number of times TLB was flushed by MVA & ASID
system.cpu7.dtb.flush_tlb_asid                      0                       # Number of times TLB was flushed by ASID
system.cpu7.dtb.flush_entries                     407                       # Number of entries that have been flushed from TLB
system.cpu7.dtb.align_faults                        0                       # Number of TLB faults due to alignment restrictions
system.cpu7.dtb.prefetch_faults                    60                       # Number of TLB faults due to prefetch
system.cpu7.dtb.domain_faults                       0                       # Number of TLB faults due to domain restrictions
system.cpu7.dtb.perms_faults                        5                       # Number of TLB faults due to permissions restrictions
system.cpu7.dtb.read_accesses                  543982                       # DTB read accesses
system.cpu7.dtb.write_accesses                 297403                       # DTB write accesses
system.cpu7.dtb.inst_accesses                       0                       # ITB inst accesses
system.cpu7.dtb.hits                           838412                       # DTB hits
system.cpu7.dtb.misses                           2973                       # DTB misses
system.cpu7.dtb.accesses                       841385                       # DTB accesses
system.cpu7.istage2_mmu.stage2_tlb.inst_hits            0                       # ITB inst hits
system.cpu7.istage2_mmu.stage2_tlb.inst_misses            0                       # ITB inst misses
system.cpu7.istage2_mmu.stage2_tlb.read_hits            0                       # DTB read hits
system.cpu7.istage2_mmu.stage2_tlb.read_misses            0                       # DTB read misses
system.cpu7.istage2_mmu.stage2_tlb.write_hits            0                       # DTB write hits
system.cpu7.istage2_mmu.stage2_tlb.write_misses            0                       # DTB write misses
system.cpu7.istage2_mmu.stage2_tlb.flush_tlb            0                       # Number of times complete TLB was flushed
system.cpu7.istage2_mmu.stage2_tlb.flush_tlb_mva            0                       # Number of times TLB was flushed by MVA
system.cpu7.istage2_mmu.stage2_tlb.flush_tlb_mva_asid            0                       # Number of times TLB was flushed by MVA & ASID
system.cpu7.istage2_mmu.stage2_tlb.flush_tlb_asid            0                       # Number of times TLB was flushed by ASID
system.cpu7.istage2_mmu.stage2_tlb.flush_entries            0                       # Number of entries that have been flushed from TLB
system.cpu7.istage2_mmu.stage2_tlb.align_faults            0                       # Number of TLB faults due to alignment restrictions
system.cpu7.istage2_mmu.stage2_tlb.prefetch_faults            0                       # Number of TLB faults due to prefetch
system.cpu7.istage2_mmu.stage2_tlb.domain_faults            0                       # Number of TLB faults due to domain restrictions
system.cpu7.istage2_mmu.stage2_tlb.perms_faults            0                       # Number of TLB faults due to permissions restrictions
system.cpu7.istage2_mmu.stage2_tlb.read_accesses            0                       # DTB read accesses
system.cpu7.istage2_mmu.stage2_tlb.write_accesses            0                       # DTB write accesses
system.cpu7.istage2_mmu.stage2_tlb.inst_accesses            0                       # ITB inst accesses
system.cpu7.istage2_mmu.stage2_tlb.hits             0                       # DTB hits
system.cpu7.istage2_mmu.stage2_tlb.misses            0                       # DTB misses
system.cpu7.istage2_mmu.stage2_tlb.accesses            0                       # DTB accesses
system.cpu7.itb.inst_hits                     4185918                       # ITB inst hits
system.cpu7.itb.inst_misses                       200                       # ITB inst misses
system.cpu7.itb.read_hits                           0                       # DTB read hits
system.cpu7.itb.read_misses                         0                       # DTB read misses
system.cpu7.itb.write_hits                          0                       # DTB write hits
system.cpu7.itb.write_misses                        0                       # DTB write misses
system.cpu7.itb.flush_tlb                          13                       # Number of times complete TLB was flushed
system.cpu7.itb.flush_tlb_mva                     141                       # Number of times TLB was flushed by MVA
system.cpu7.itb.flush_tlb_mva_asid                  0                       # Number of times TLB was flushed by MVA & ASID
system.cpu7.itb.flush_tlb_asid                      0                       # Number of times TLB was flushed by ASID
system.cpu7.itb.flush_entries                     143                       # Number of entries that have been flushed from TLB
system.cpu7.itb.align_faults                        0                       # Number of TLB faults due to alignment restrictions
system.cpu7.itb.prefetch_faults                     0                       # Number of TLB faults due to prefetch
system.cpu7.itb.domain_faults                       0                       # Number of TLB faults due to domain restrictions
system.cpu7.itb.perms_faults                        0                       # Number of TLB faults due to permissions restrictions
system.cpu7.itb.read_accesses                       0                       # DTB read accesses
system.cpu7.itb.write_accesses                      0                       # DTB write accesses
system.cpu7.itb.inst_accesses                 4186118                       # ITB inst accesses
system.cpu7.itb.hits                          4185918                       # DTB hits
system.cpu7.itb.misses                            200                       # DTB misses
system.cpu7.itb.accesses                      4186118                       # DTB accesses
system.cpu7.numCycles                         4672989                       # number of cpu cycles simulated
system.cpu7.numWorkItemsStarted                     0                       # number of work items this cpu started
system.cpu7.numWorkItemsCompleted                   0                       # number of work items this cpu completed
system.cpu7.committedInsts                    4163997                       # Number of instructions committed
system.cpu7.committedOps                      4390456                       # Number of ops (including micro ops) committed
system.cpu7.num_int_alu_accesses              3902281                       # Number of integer alu accesses
system.cpu7.num_fp_alu_accesses                   274                       # Number of float alu accesses
system.cpu7.num_func_calls                     133297                       # number of times a function call or return occured
system.cpu7.num_conditional_control_insts       474621                       # number of instructions that are conditional controls
system.cpu7.num_int_insts                     3902281                       # number of integer instructions
system.cpu7.num_fp_insts                          274                       # number of float instructions
system.cpu7.num_int_register_reads            6721424                       # number of times the integer registers were read
system.cpu7.num_int_register_writes           2384431                       # number of times the integer registers were written
system.cpu7.num_fp_register_reads                 146                       # number of times the floating registers were read
system.cpu7.num_fp_register_writes                128                       # number of times the floating registers were written
system.cpu7.num_cc_register_reads            13145466                       # number of times the CC registers were read
system.cpu7.num_cc_register_writes            3207732                       # number of times the CC registers were written
system.cpu7.num_mem_refs                       844921                       # number of memory refs
system.cpu7.num_load_insts                     544734                       # Number of load instructions
system.cpu7.num_store_insts                    300187                       # Number of store instructions
system.cpu7.num_idle_cycles              209867.899977                       # Number of idle cycles
system.cpu7.num_busy_cycles              4463121.100023                       # Number of busy cycles
system.cpu7.not_idle_fraction                0.955089                       # Percentage of non-idle cycles
system.cpu7.idle_fraction                    0.044911                       # Percentage of idle cycles
system.cpu7.Branches                           609834                       # Number of branches fetched
system.cpu7.op_class::No_OpClass                    9      0.00%      0.00% # Class of executed instruction
system.cpu7.op_class::IntAlu                  3513220     80.00%     80.00% # Class of executed instruction
system.cpu7.op_class::IntMult                   33278      0.76%     80.76% # Class of executed instruction
system.cpu7.op_class::IntDiv                        0      0.00%     80.76% # Class of executed instruction
system.cpu7.op_class::FloatAdd                      0      0.00%     80.76% # Class of executed instruction
system.cpu7.op_class::FloatCmp                      0      0.00%     80.76% # Class of executed instruction
system.cpu7.op_class::FloatCvt                      0      0.00%     80.76% # Class of executed instruction
system.cpu7.op_class::FloatMult                     0      0.00%     80.76% # Class of executed instruction
system.cpu7.op_class::FloatDiv                      0      0.00%     80.76% # Class of executed instruction
system.cpu7.op_class::FloatSqrt                     0      0.00%     80.76% # Class of executed instruction
system.cpu7.op_class::SimdAdd                       0      0.00%     80.76% # Class of executed instruction
system.cpu7.op_class::SimdAddAcc                    0      0.00%     80.76% # Class of executed instruction
system.cpu7.op_class::SimdAlu                       0      0.00%     80.76% # Class of executed instruction
system.cpu7.op_class::SimdCmp                       0      0.00%     80.76% # Class of executed instruction
system.cpu7.op_class::SimdCvt                       0      0.00%     80.76% # Class of executed instruction
system.cpu7.op_class::SimdMisc                      0      0.00%     80.76% # Class of executed instruction
system.cpu7.op_class::SimdMult                      0      0.00%     80.76% # Class of executed instruction
system.cpu7.op_class::SimdMultAcc                   0      0.00%     80.76% # Class of executed instruction
system.cpu7.op_class::SimdShift                     0      0.00%     80.76% # Class of executed instruction
system.cpu7.op_class::SimdShiftAcc                  0      0.00%     80.76% # Class of executed instruction
system.cpu7.op_class::SimdSqrt                      0      0.00%     80.76% # Class of executed instruction
system.cpu7.op_class::SimdFloatAdd                  0      0.00%     80.76% # Class of executed instruction
system.cpu7.op_class::SimdFloatAlu                  0      0.00%     80.76% # Class of executed instruction
system.cpu7.op_class::SimdFloatCmp                  0      0.00%     80.76% # Class of executed instruction
system.cpu7.op_class::SimdFloatCvt                  0      0.00%     80.76% # Class of executed instruction
system.cpu7.op_class::SimdFloatDiv                  0      0.00%     80.76% # Class of executed instruction
system.cpu7.op_class::SimdFloatMisc                26      0.00%     80.76% # Class of executed instruction
system.cpu7.op_class::SimdFloatMult                 0      0.00%     80.76% # Class of executed instruction
system.cpu7.op_class::SimdFloatMultAcc              0      0.00%     80.76% # Class of executed instruction
system.cpu7.op_class::SimdFloatSqrt                 0      0.00%     80.76% # Class of executed instruction
system.cpu7.op_class::MemRead                  544734     12.40%     93.16% # Class of executed instruction
system.cpu7.op_class::MemWrite                 300187      6.84%    100.00% # Class of executed instruction
system.cpu7.op_class::IprAccess                     0      0.00%    100.00% # Class of executed instruction
system.cpu7.op_class::InstPrefetch                  0      0.00%    100.00% # Class of executed instruction
system.cpu7.op_class::total                   4391454                       # Class of executed instruction
system.cpu7.kern.inst.arm                           0                       # number of arm instructions executed
system.cpu7.kern.inst.quiesce                     172                       # number of quiesce instructions executed

---------- End Simulation Statistics   ----------
