
---------- Begin Simulation Statistics ----------
sim_seconds                                  0.046973                       # Number of seconds simulated
sim_ticks                                 46972571500                       # Number of ticks simulated
final_tick                               3282545017000                       # Number of ticks from beginning of simulation (restored from checkpoints and never reset)
sim_freq                                 1000000000000                       # Frequency of simulated ticks
host_inst_rate                                 197167                       # Simulator instruction rate (inst/s)
host_op_rate                                   214426                       # Simulator op (including micro ops) rate (op/s)
host_tick_rate                               33110167                       # Simulator tick rate (ticks/s)
host_mem_usage                                 982120                       # Number of bytes of host memory used
host_seconds                                  1418.68                       # Real time elapsed on the host
sim_insts                                   279716424                       # Number of instructions simulated
sim_ops                                     304201110                       # Number of ops (including micro ops) simulated
system.voltage_domain.voltage                       1                       # Voltage in Volts
system.clk_domain.clock                          1000                       # Clock period in ticks
system.mem_ctrls.bytes_read::switch_cpus0.dtb.walker         9536                       # Number of bytes read from this memory
system.mem_ctrls.bytes_read::switch_cpus0.itb.walker         4672                       # Number of bytes read from this memory
system.mem_ctrls.bytes_read::switch_cpus0.inst       253824                       # Number of bytes read from this memory
system.mem_ctrls.bytes_read::switch_cpus0.data       586496                       # Number of bytes read from this memory
system.mem_ctrls.bytes_read::switch_cpus1.dtb.walker         1984                       # Number of bytes read from this memory
system.mem_ctrls.bytes_read::switch_cpus1.itb.walker         1024                       # Number of bytes read from this memory
system.mem_ctrls.bytes_read::switch_cpus1.inst        54080                       # Number of bytes read from this memory
system.mem_ctrls.bytes_read::switch_cpus1.data       128640                       # Number of bytes read from this memory
system.mem_ctrls.bytes_read::switch_cpus2.dtb.walker        19200                       # Number of bytes read from this memory
system.mem_ctrls.bytes_read::switch_cpus2.itb.walker        16256                       # Number of bytes read from this memory
system.mem_ctrls.bytes_read::switch_cpus2.inst       413568                       # Number of bytes read from this memory
system.mem_ctrls.bytes_read::switch_cpus2.data      1265152                       # Number of bytes read from this memory
system.mem_ctrls.bytes_read::switch_cpus3.dtb.walker         7936                       # Number of bytes read from this memory
system.mem_ctrls.bytes_read::switch_cpus3.itb.walker         9472                       # Number of bytes read from this memory
system.mem_ctrls.bytes_read::switch_cpus3.inst       289280                       # Number of bytes read from this memory
system.mem_ctrls.bytes_read::switch_cpus3.data       888000                       # Number of bytes read from this memory
system.mem_ctrls.bytes_read::switch_cpus4.dtb.walker         4160                       # Number of bytes read from this memory
system.mem_ctrls.bytes_read::switch_cpus4.itb.walker         2560                       # Number of bytes read from this memory
system.mem_ctrls.bytes_read::switch_cpus4.inst       162688                       # Number of bytes read from this memory
system.mem_ctrls.bytes_read::switch_cpus4.data       299200                       # Number of bytes read from this memory
system.mem_ctrls.bytes_read::switch_cpus5.dtb.walker         3904                       # Number of bytes read from this memory
system.mem_ctrls.bytes_read::switch_cpus5.itb.walker         2304                       # Number of bytes read from this memory
system.mem_ctrls.bytes_read::switch_cpus5.inst       101120                       # Number of bytes read from this memory
system.mem_ctrls.bytes_read::switch_cpus5.data       166272                       # Number of bytes read from this memory
system.mem_ctrls.bytes_read::switch_cpus6.dtb.walker         7296                       # Number of bytes read from this memory
system.mem_ctrls.bytes_read::switch_cpus6.itb.walker         3136                       # Number of bytes read from this memory
system.mem_ctrls.bytes_read::switch_cpus6.inst       628416                       # Number of bytes read from this memory
system.mem_ctrls.bytes_read::switch_cpus6.data      1648256                       # Number of bytes read from this memory
system.mem_ctrls.bytes_read::switch_cpus7.dtb.walker        19456                       # Number of bytes read from this memory
system.mem_ctrls.bytes_read::switch_cpus7.itb.walker        11008                       # Number of bytes read from this memory
system.mem_ctrls.bytes_read::switch_cpus7.inst       208320                       # Number of bytes read from this memory
system.mem_ctrls.bytes_read::switch_cpus7.data      3349440                       # Number of bytes read from this memory
system.mem_ctrls.bytes_read::l2.prefetcher     23984256                       # Number of bytes read from this memory
system.mem_ctrls.bytes_read::cpu0.inst            320                       # Number of bytes read from this memory
system.mem_ctrls.bytes_read::cpu0.data            256                       # Number of bytes read from this memory
system.mem_ctrls.bytes_read::cpu2.inst            192                       # Number of bytes read from this memory
system.mem_ctrls.bytes_read::cpu2.data             64                       # Number of bytes read from this memory
system.mem_ctrls.bytes_read::cpu3.inst            192                       # Number of bytes read from this memory
system.mem_ctrls.bytes_read::cpu3.data            320                       # Number of bytes read from this memory
system.mem_ctrls.bytes_read::total           34552256                       # Number of bytes read from this memory
system.mem_ctrls.bytes_inst_read::switch_cpus0.inst       253824                       # Number of instructions bytes read from this memory
system.mem_ctrls.bytes_inst_read::switch_cpus1.inst        54080                       # Number of instructions bytes read from this memory
system.mem_ctrls.bytes_inst_read::switch_cpus2.inst       413568                       # Number of instructions bytes read from this memory
system.mem_ctrls.bytes_inst_read::switch_cpus3.inst       289280                       # Number of instructions bytes read from this memory
system.mem_ctrls.bytes_inst_read::switch_cpus4.inst       162688                       # Number of instructions bytes read from this memory
system.mem_ctrls.bytes_inst_read::switch_cpus5.inst       101120                       # Number of instructions bytes read from this memory
system.mem_ctrls.bytes_inst_read::switch_cpus6.inst       628416                       # Number of instructions bytes read from this memory
system.mem_ctrls.bytes_inst_read::switch_cpus7.inst       208320                       # Number of instructions bytes read from this memory
system.mem_ctrls.bytes_inst_read::cpu0.inst          320                       # Number of instructions bytes read from this memory
system.mem_ctrls.bytes_inst_read::cpu2.inst          192                       # Number of instructions bytes read from this memory
system.mem_ctrls.bytes_inst_read::cpu3.inst          192                       # Number of instructions bytes read from this memory
system.mem_ctrls.bytes_inst_read::total       2112000                       # Number of instructions bytes read from this memory
system.mem_ctrls.bytes_written::writebacks     12717248                       # Number of bytes written to this memory
system.mem_ctrls.bytes_written::realview.ide      2924544                       # Number of bytes written to this memory
system.mem_ctrls.bytes_written::total        15641792                       # Number of bytes written to this memory
system.mem_ctrls.num_reads::switch_cpus0.dtb.walker          149                       # Number of read requests responded to by this memory
system.mem_ctrls.num_reads::switch_cpus0.itb.walker           73                       # Number of read requests responded to by this memory
system.mem_ctrls.num_reads::switch_cpus0.inst         3966                       # Number of read requests responded to by this memory
system.mem_ctrls.num_reads::switch_cpus0.data         9164                       # Number of read requests responded to by this memory
system.mem_ctrls.num_reads::switch_cpus1.dtb.walker           31                       # Number of read requests responded to by this memory
system.mem_ctrls.num_reads::switch_cpus1.itb.walker           16                       # Number of read requests responded to by this memory
system.mem_ctrls.num_reads::switch_cpus1.inst          845                       # Number of read requests responded to by this memory
system.mem_ctrls.num_reads::switch_cpus1.data         2010                       # Number of read requests responded to by this memory
system.mem_ctrls.num_reads::switch_cpus2.dtb.walker          300                       # Number of read requests responded to by this memory
system.mem_ctrls.num_reads::switch_cpus2.itb.walker          254                       # Number of read requests responded to by this memory
system.mem_ctrls.num_reads::switch_cpus2.inst         6462                       # Number of read requests responded to by this memory
system.mem_ctrls.num_reads::switch_cpus2.data        19768                       # Number of read requests responded to by this memory
system.mem_ctrls.num_reads::switch_cpus3.dtb.walker          124                       # Number of read requests responded to by this memory
system.mem_ctrls.num_reads::switch_cpus3.itb.walker          148                       # Number of read requests responded to by this memory
system.mem_ctrls.num_reads::switch_cpus3.inst         4520                       # Number of read requests responded to by this memory
system.mem_ctrls.num_reads::switch_cpus3.data        13875                       # Number of read requests responded to by this memory
system.mem_ctrls.num_reads::switch_cpus4.dtb.walker           65                       # Number of read requests responded to by this memory
system.mem_ctrls.num_reads::switch_cpus4.itb.walker           40                       # Number of read requests responded to by this memory
system.mem_ctrls.num_reads::switch_cpus4.inst         2542                       # Number of read requests responded to by this memory
system.mem_ctrls.num_reads::switch_cpus4.data         4675                       # Number of read requests responded to by this memory
system.mem_ctrls.num_reads::switch_cpus5.dtb.walker           61                       # Number of read requests responded to by this memory
system.mem_ctrls.num_reads::switch_cpus5.itb.walker           36                       # Number of read requests responded to by this memory
system.mem_ctrls.num_reads::switch_cpus5.inst         1580                       # Number of read requests responded to by this memory
system.mem_ctrls.num_reads::switch_cpus5.data         2598                       # Number of read requests responded to by this memory
system.mem_ctrls.num_reads::switch_cpus6.dtb.walker          114                       # Number of read requests responded to by this memory
system.mem_ctrls.num_reads::switch_cpus6.itb.walker           49                       # Number of read requests responded to by this memory
system.mem_ctrls.num_reads::switch_cpus6.inst         9819                       # Number of read requests responded to by this memory
system.mem_ctrls.num_reads::switch_cpus6.data        25754                       # Number of read requests responded to by this memory
system.mem_ctrls.num_reads::switch_cpus7.dtb.walker          304                       # Number of read requests responded to by this memory
system.mem_ctrls.num_reads::switch_cpus7.itb.walker          172                       # Number of read requests responded to by this memory
system.mem_ctrls.num_reads::switch_cpus7.inst         3255                       # Number of read requests responded to by this memory
system.mem_ctrls.num_reads::switch_cpus7.data        52335                       # Number of read requests responded to by this memory
system.mem_ctrls.num_reads::l2.prefetcher       374754                       # Number of read requests responded to by this memory
system.mem_ctrls.num_reads::cpu0.inst               5                       # Number of read requests responded to by this memory
system.mem_ctrls.num_reads::cpu0.data               4                       # Number of read requests responded to by this memory
system.mem_ctrls.num_reads::cpu2.inst               3                       # Number of read requests responded to by this memory
system.mem_ctrls.num_reads::cpu2.data               1                       # Number of read requests responded to by this memory
system.mem_ctrls.num_reads::cpu3.inst               3                       # Number of read requests responded to by this memory
system.mem_ctrls.num_reads::cpu3.data               5                       # Number of read requests responded to by this memory
system.mem_ctrls.num_reads::total              539879                       # Number of read requests responded to by this memory
system.mem_ctrls.num_writes::writebacks        198707                       # Number of write requests responded to by this memory
system.mem_ctrls.num_writes::realview.ide        45696                       # Number of write requests responded to by this memory
system.mem_ctrls.num_writes::total             244403                       # Number of write requests responded to by this memory
system.mem_ctrls.bw_read::switch_cpus0.dtb.walker       203012                       # Total read bandwidth from this memory (bytes/s)
system.mem_ctrls.bw_read::switch_cpus0.itb.walker        99462                       # Total read bandwidth from this memory (bytes/s)
system.mem_ctrls.bw_read::switch_cpus0.inst      5403664                       # Total read bandwidth from this memory (bytes/s)
system.mem_ctrls.bw_read::switch_cpus0.data     12485925                       # Total read bandwidth from this memory (bytes/s)
system.mem_ctrls.bw_read::switch_cpus1.dtb.walker        42237                       # Total read bandwidth from this memory (bytes/s)
system.mem_ctrls.bw_read::switch_cpus1.itb.walker        21800                       # Total read bandwidth from this memory (bytes/s)
system.mem_ctrls.bw_read::switch_cpus1.inst      1151310                       # Total read bandwidth from this memory (bytes/s)
system.mem_ctrls.bw_read::switch_cpus1.data      2738619                       # Total read bandwidth from this memory (bytes/s)
system.mem_ctrls.bw_read::switch_cpus2.dtb.walker       408749                       # Total read bandwidth from this memory (bytes/s)
system.mem_ctrls.bw_read::switch_cpus2.itb.walker       346074                       # Total read bandwidth from this memory (bytes/s)
system.mem_ctrls.bw_read::switch_cpus2.inst      8804457                       # Total read bandwidth from this memory (bytes/s)
system.mem_ctrls.bw_read::switch_cpus2.data     26933846                       # Total read bandwidth from this memory (bytes/s)
system.mem_ctrls.bw_read::switch_cpus3.dtb.walker       168950                       # Total read bandwidth from this memory (bytes/s)
system.mem_ctrls.bw_read::switch_cpus3.itb.walker       201650                       # Total read bandwidth from this memory (bytes/s)
system.mem_ctrls.bw_read::switch_cpus3.inst      6158488                       # Total read bandwidth from this memory (bytes/s)
system.mem_ctrls.bw_read::switch_cpus3.data     18904649                       # Total read bandwidth from this memory (bytes/s)
system.mem_ctrls.bw_read::switch_cpus4.dtb.walker        88562                       # Total read bandwidth from this memory (bytes/s)
system.mem_ctrls.bw_read::switch_cpus4.itb.walker        54500                       # Total read bandwidth from this memory (bytes/s)
system.mem_ctrls.bw_read::switch_cpus4.inst      3463468                       # Total read bandwidth from this memory (bytes/s)
system.mem_ctrls.bw_read::switch_cpus4.data      6369675                       # Total read bandwidth from this memory (bytes/s)
system.mem_ctrls.bw_read::switch_cpus5.dtb.walker        83112                       # Total read bandwidth from this memory (bytes/s)
system.mem_ctrls.bw_read::switch_cpus5.itb.walker        49050                       # Total read bandwidth from this memory (bytes/s)
system.mem_ctrls.bw_read::switch_cpus5.inst      2152746                       # Total read bandwidth from this memory (bytes/s)
system.mem_ctrls.bw_read::switch_cpus5.data      3539768                       # Total read bandwidth from this memory (bytes/s)
system.mem_ctrls.bw_read::switch_cpus6.dtb.walker       155325                       # Total read bandwidth from this memory (bytes/s)
system.mem_ctrls.bw_read::switch_cpus6.itb.walker        66762                       # Total read bandwidth from this memory (bytes/s)
system.mem_ctrls.bw_read::switch_cpus6.inst     13378361                       # Total read bandwidth from this memory (bytes/s)
system.mem_ctrls.bw_read::switch_cpus6.data     35089754                       # Total read bandwidth from this memory (bytes/s)
system.mem_ctrls.bw_read::switch_cpus7.dtb.walker       414199                       # Total read bandwidth from this memory (bytes/s)
system.mem_ctrls.bw_read::switch_cpus7.itb.walker       234350                       # Total read bandwidth from this memory (bytes/s)
system.mem_ctrls.bw_read::switch_cpus7.inst      4434929                       # Total read bandwidth from this memory (bytes/s)
system.mem_ctrls.bw_read::switch_cpus7.data     71306294                       # Total read bandwidth from this memory (bytes/s)
system.mem_ctrls.bw_read::l2.prefetcher     510601298                       # Total read bandwidth from this memory (bytes/s)
system.mem_ctrls.bw_read::cpu0.inst              6812                       # Total read bandwidth from this memory (bytes/s)
system.mem_ctrls.bw_read::cpu0.data              5450                       # Total read bandwidth from this memory (bytes/s)
system.mem_ctrls.bw_read::cpu2.inst              4087                       # Total read bandwidth from this memory (bytes/s)
system.mem_ctrls.bw_read::cpu2.data              1362                       # Total read bandwidth from this memory (bytes/s)
system.mem_ctrls.bw_read::cpu3.inst              4087                       # Total read bandwidth from this memory (bytes/s)
system.mem_ctrls.bw_read::cpu3.data              6812                       # Total read bandwidth from this memory (bytes/s)
system.mem_ctrls.bw_read::total             735583659                       # Total read bandwidth from this memory (bytes/s)
system.mem_ctrls.bw_inst_read::switch_cpus0.inst      5403664                       # Instruction read bandwidth from this memory (bytes/s)
system.mem_ctrls.bw_inst_read::switch_cpus1.inst      1151310                       # Instruction read bandwidth from this memory (bytes/s)
system.mem_ctrls.bw_inst_read::switch_cpus2.inst      8804457                       # Instruction read bandwidth from this memory (bytes/s)
system.mem_ctrls.bw_inst_read::switch_cpus3.inst      6158488                       # Instruction read bandwidth from this memory (bytes/s)
system.mem_ctrls.bw_inst_read::switch_cpus4.inst      3463468                       # Instruction read bandwidth from this memory (bytes/s)
system.mem_ctrls.bw_inst_read::switch_cpus5.inst      2152746                       # Instruction read bandwidth from this memory (bytes/s)
system.mem_ctrls.bw_inst_read::switch_cpus6.inst     13378361                       # Instruction read bandwidth from this memory (bytes/s)
system.mem_ctrls.bw_inst_read::switch_cpus7.inst      4434929                       # Instruction read bandwidth from this memory (bytes/s)
system.mem_ctrls.bw_inst_read::cpu0.inst         6812                       # Instruction read bandwidth from this memory (bytes/s)
system.mem_ctrls.bw_inst_read::cpu2.inst         4087                       # Instruction read bandwidth from this memory (bytes/s)
system.mem_ctrls.bw_inst_read::cpu3.inst         4087                       # Instruction read bandwidth from this memory (bytes/s)
system.mem_ctrls.bw_inst_read::total         44962410                       # Instruction read bandwidth from this memory (bytes/s)
system.mem_ctrls.bw_write::writebacks       270737743                       # Write bandwidth from this memory (bytes/s)
system.mem_ctrls.bw_write::realview.ide      62260675                       # Write bandwidth from this memory (bytes/s)
system.mem_ctrls.bw_write::total            332998418                       # Write bandwidth from this memory (bytes/s)
system.mem_ctrls.bw_total::writebacks       270737743                       # Total bandwidth to/from this memory (bytes/s)
system.mem_ctrls.bw_total::switch_cpus0.dtb.walker       203012                       # Total bandwidth to/from this memory (bytes/s)
system.mem_ctrls.bw_total::switch_cpus0.itb.walker        99462                       # Total bandwidth to/from this memory (bytes/s)
system.mem_ctrls.bw_total::switch_cpus0.inst      5403664                       # Total bandwidth to/from this memory (bytes/s)
system.mem_ctrls.bw_total::switch_cpus0.data     12485925                       # Total bandwidth to/from this memory (bytes/s)
system.mem_ctrls.bw_total::switch_cpus1.dtb.walker        42237                       # Total bandwidth to/from this memory (bytes/s)
system.mem_ctrls.bw_total::switch_cpus1.itb.walker        21800                       # Total bandwidth to/from this memory (bytes/s)
system.mem_ctrls.bw_total::switch_cpus1.inst      1151310                       # Total bandwidth to/from this memory (bytes/s)
system.mem_ctrls.bw_total::switch_cpus1.data      2738619                       # Total bandwidth to/from this memory (bytes/s)
system.mem_ctrls.bw_total::switch_cpus2.dtb.walker       408749                       # Total bandwidth to/from this memory (bytes/s)
system.mem_ctrls.bw_total::switch_cpus2.itb.walker       346074                       # Total bandwidth to/from this memory (bytes/s)
system.mem_ctrls.bw_total::switch_cpus2.inst      8804457                       # Total bandwidth to/from this memory (bytes/s)
system.mem_ctrls.bw_total::switch_cpus2.data     26933846                       # Total bandwidth to/from this memory (bytes/s)
system.mem_ctrls.bw_total::switch_cpus3.dtb.walker       168950                       # Total bandwidth to/from this memory (bytes/s)
system.mem_ctrls.bw_total::switch_cpus3.itb.walker       201650                       # Total bandwidth to/from this memory (bytes/s)
system.mem_ctrls.bw_total::switch_cpus3.inst      6158488                       # Total bandwidth to/from this memory (bytes/s)
system.mem_ctrls.bw_total::switch_cpus3.data     18904649                       # Total bandwidth to/from this memory (bytes/s)
system.mem_ctrls.bw_total::switch_cpus4.dtb.walker        88562                       # Total bandwidth to/from this memory (bytes/s)
system.mem_ctrls.bw_total::switch_cpus4.itb.walker        54500                       # Total bandwidth to/from this memory (bytes/s)
system.mem_ctrls.bw_total::switch_cpus4.inst      3463468                       # Total bandwidth to/from this memory (bytes/s)
system.mem_ctrls.bw_total::switch_cpus4.data      6369675                       # Total bandwidth to/from this memory (bytes/s)
system.mem_ctrls.bw_total::switch_cpus5.dtb.walker        83112                       # Total bandwidth to/from this memory (bytes/s)
system.mem_ctrls.bw_total::switch_cpus5.itb.walker        49050                       # Total bandwidth to/from this memory (bytes/s)
system.mem_ctrls.bw_total::switch_cpus5.inst      2152746                       # Total bandwidth to/from this memory (bytes/s)
system.mem_ctrls.bw_total::switch_cpus5.data      3539768                       # Total bandwidth to/from this memory (bytes/s)
system.mem_ctrls.bw_total::switch_cpus6.dtb.walker       155325                       # Total bandwidth to/from this memory (bytes/s)
system.mem_ctrls.bw_total::switch_cpus6.itb.walker        66762                       # Total bandwidth to/from this memory (bytes/s)
system.mem_ctrls.bw_total::switch_cpus6.inst     13378361                       # Total bandwidth to/from this memory (bytes/s)
system.mem_ctrls.bw_total::switch_cpus6.data     35089754                       # Total bandwidth to/from this memory (bytes/s)
system.mem_ctrls.bw_total::switch_cpus7.dtb.walker       414199                       # Total bandwidth to/from this memory (bytes/s)
system.mem_ctrls.bw_total::switch_cpus7.itb.walker       234350                       # Total bandwidth to/from this memory (bytes/s)
system.mem_ctrls.bw_total::switch_cpus7.inst      4434929                       # Total bandwidth to/from this memory (bytes/s)
system.mem_ctrls.bw_total::switch_cpus7.data     71306294                       # Total bandwidth to/from this memory (bytes/s)
system.mem_ctrls.bw_total::realview.ide      62260675                       # Total bandwidth to/from this memory (bytes/s)
system.mem_ctrls.bw_total::l2.prefetcher    510601298                       # Total bandwidth to/from this memory (bytes/s)
system.mem_ctrls.bw_total::cpu0.inst             6812                       # Total bandwidth to/from this memory (bytes/s)
system.mem_ctrls.bw_total::cpu0.data             5450                       # Total bandwidth to/from this memory (bytes/s)
system.mem_ctrls.bw_total::cpu2.inst             4087                       # Total bandwidth to/from this memory (bytes/s)
system.mem_ctrls.bw_total::cpu2.data             1362                       # Total bandwidth to/from this memory (bytes/s)
system.mem_ctrls.bw_total::cpu3.inst             4087                       # Total bandwidth to/from this memory (bytes/s)
system.mem_ctrls.bw_total::cpu3.data             6812                       # Total bandwidth to/from this memory (bytes/s)
system.mem_ctrls.bw_total::total           1068582077                       # Total bandwidth to/from this memory (bytes/s)
system.mem_ctrls.readReqs                      539858                       # Number of read requests accepted
system.mem_ctrls.writeReqs                     244403                       # Number of write requests accepted
system.mem_ctrls.readBursts                    539858                       # Number of DRAM read bursts, including those serviced by the write queue
system.mem_ctrls.writeBursts                   244403                       # Number of DRAM write bursts, including those merged in the write queue
system.mem_ctrls.bytesReadDRAM               34495104                       # Total number of bytes read from DRAM
system.mem_ctrls.bytesReadWrQ                   55808                       # Total number of bytes read from write queue
system.mem_ctrls.bytesWritten                15640128                       # Total number of bytes written to DRAM
system.mem_ctrls.bytesReadSys                34550912                       # Total read bytes from the system interface side
system.mem_ctrls.bytesWrittenSys             15641792                       # Total written bytes from the system interface side
system.mem_ctrls.servicedByWrQ                    872                       # Number of DRAM read bursts serviced by the write queue
system.mem_ctrls.mergedWrBursts                     0                       # Number of DRAM write bursts merged with an existing one
system.mem_ctrls.neitherReadNorWriteReqs        24020                       # Number of requests that are neither read nor write
system.mem_ctrls.perBankRdBursts::0             36019                       # Per bank write bursts
system.mem_ctrls.perBankRdBursts::1             24749                       # Per bank write bursts
system.mem_ctrls.perBankRdBursts::2             37540                       # Per bank write bursts
system.mem_ctrls.perBankRdBursts::3             37441                       # Per bank write bursts
system.mem_ctrls.perBankRdBursts::4             30163                       # Per bank write bursts
system.mem_ctrls.perBankRdBursts::5             27250                       # Per bank write bursts
system.mem_ctrls.perBankRdBursts::6             38339                       # Per bank write bursts
system.mem_ctrls.perBankRdBursts::7             39640                       # Per bank write bursts
system.mem_ctrls.perBankRdBursts::8             46308                       # Per bank write bursts
system.mem_ctrls.perBankRdBursts::9             52521                       # Per bank write bursts
system.mem_ctrls.perBankRdBursts::10            32230                       # Per bank write bursts
system.mem_ctrls.perBankRdBursts::11            30543                       # Per bank write bursts
system.mem_ctrls.perBankRdBursts::12            22307                       # Per bank write bursts
system.mem_ctrls.perBankRdBursts::13            24895                       # Per bank write bursts
system.mem_ctrls.perBankRdBursts::14            28436                       # Per bank write bursts
system.mem_ctrls.perBankRdBursts::15            30605                       # Per bank write bursts
system.mem_ctrls.perBankWrBursts::0             18255                       # Per bank write bursts
system.mem_ctrls.perBankWrBursts::1             13247                       # Per bank write bursts
system.mem_ctrls.perBankWrBursts::2             15586                       # Per bank write bursts
system.mem_ctrls.perBankWrBursts::3             15123                       # Per bank write bursts
system.mem_ctrls.perBankWrBursts::4             12318                       # Per bank write bursts
system.mem_ctrls.perBankWrBursts::5             12326                       # Per bank write bursts
system.mem_ctrls.perBankWrBursts::6             14743                       # Per bank write bursts
system.mem_ctrls.perBankWrBursts::7             15050                       # Per bank write bursts
system.mem_ctrls.perBankWrBursts::8             18643                       # Per bank write bursts
system.mem_ctrls.perBankWrBursts::9             19493                       # Per bank write bursts
system.mem_ctrls.perBankWrBursts::10            15521                       # Per bank write bursts
system.mem_ctrls.perBankWrBursts::11            15233                       # Per bank write bursts
system.mem_ctrls.perBankWrBursts::12            14061                       # Per bank write bursts
system.mem_ctrls.perBankWrBursts::13            14500                       # Per bank write bursts
system.mem_ctrls.perBankWrBursts::14            14782                       # Per bank write bursts
system.mem_ctrls.perBankWrBursts::15            15496                       # Per bank write bursts
system.mem_ctrls.numRdRetry                         0                       # Number of times read queue was full causing retry
system.mem_ctrls.numWrRetry                        19                       # Number of times write queue was full causing retry
system.mem_ctrls.totGap                   46972131000                       # Total gap between requests
system.mem_ctrls.readPktSize::0                     0                       # Read request sizes (log2)
system.mem_ctrls.readPktSize::1                     0                       # Read request sizes (log2)
system.mem_ctrls.readPktSize::2                     0                       # Read request sizes (log2)
system.mem_ctrls.readPktSize::3                     0                       # Read request sizes (log2)
system.mem_ctrls.readPktSize::4                     0                       # Read request sizes (log2)
system.mem_ctrls.readPktSize::5                     0                       # Read request sizes (log2)
system.mem_ctrls.readPktSize::6                539858                       # Read request sizes (log2)
system.mem_ctrls.writePktSize::0                    0                       # Write request sizes (log2)
system.mem_ctrls.writePktSize::1                    0                       # Write request sizes (log2)
system.mem_ctrls.writePktSize::2                    0                       # Write request sizes (log2)
system.mem_ctrls.writePktSize::3                    0                       # Write request sizes (log2)
system.mem_ctrls.writePktSize::4                    0                       # Write request sizes (log2)
system.mem_ctrls.writePktSize::5                    0                       # Write request sizes (log2)
system.mem_ctrls.writePktSize::6               244403                       # Write request sizes (log2)
system.mem_ctrls.rdQLenPdf::0                  187950                       # What read queue length does an incoming req see
system.mem_ctrls.rdQLenPdf::1                  139574                       # What read queue length does an incoming req see
system.mem_ctrls.rdQLenPdf::2                   68134                       # What read queue length does an incoming req see
system.mem_ctrls.rdQLenPdf::3                   40218                       # What read queue length does an incoming req see
system.mem_ctrls.rdQLenPdf::4                   27448                       # What read queue length does an incoming req see
system.mem_ctrls.rdQLenPdf::5                   20599                       # What read queue length does an incoming req see
system.mem_ctrls.rdQLenPdf::6                   16067                       # What read queue length does an incoming req see
system.mem_ctrls.rdQLenPdf::7                   12945                       # What read queue length does an incoming req see
system.mem_ctrls.rdQLenPdf::8                   10525                       # What read queue length does an incoming req see
system.mem_ctrls.rdQLenPdf::9                    5436                       # What read queue length does an incoming req see
system.mem_ctrls.rdQLenPdf::10                   3501                       # What read queue length does an incoming req see
system.mem_ctrls.rdQLenPdf::11                   2633                       # What read queue length does an incoming req see
system.mem_ctrls.rdQLenPdf::12                   1537                       # What read queue length does an incoming req see
system.mem_ctrls.rdQLenPdf::13                   1071                       # What read queue length does an incoming req see
system.mem_ctrls.rdQLenPdf::14                    784                       # What read queue length does an incoming req see
system.mem_ctrls.rdQLenPdf::15                    564                       # What read queue length does an incoming req see
system.mem_ctrls.rdQLenPdf::16                      0                       # What read queue length does an incoming req see
system.mem_ctrls.rdQLenPdf::17                      0                       # What read queue length does an incoming req see
system.mem_ctrls.rdQLenPdf::18                      0                       # What read queue length does an incoming req see
system.mem_ctrls.rdQLenPdf::19                      0                       # What read queue length does an incoming req see
system.mem_ctrls.rdQLenPdf::20                      0                       # What read queue length does an incoming req see
system.mem_ctrls.rdQLenPdf::21                      0                       # What read queue length does an incoming req see
system.mem_ctrls.rdQLenPdf::22                      0                       # What read queue length does an incoming req see
system.mem_ctrls.rdQLenPdf::23                      0                       # What read queue length does an incoming req see
system.mem_ctrls.rdQLenPdf::24                      0                       # What read queue length does an incoming req see
system.mem_ctrls.rdQLenPdf::25                      0                       # What read queue length does an incoming req see
system.mem_ctrls.rdQLenPdf::26                      0                       # What read queue length does an incoming req see
system.mem_ctrls.rdQLenPdf::27                      0                       # What read queue length does an incoming req see
system.mem_ctrls.rdQLenPdf::28                      0                       # What read queue length does an incoming req see
system.mem_ctrls.rdQLenPdf::29                      0                       # What read queue length does an incoming req see
system.mem_ctrls.rdQLenPdf::30                      0                       # What read queue length does an incoming req see
system.mem_ctrls.rdQLenPdf::31                      0                       # What read queue length does an incoming req see
system.mem_ctrls.wrQLenPdf::0                       1                       # What write queue length does an incoming req see
system.mem_ctrls.wrQLenPdf::1                       1                       # What write queue length does an incoming req see
system.mem_ctrls.wrQLenPdf::2                       1                       # What write queue length does an incoming req see
system.mem_ctrls.wrQLenPdf::3                       1                       # What write queue length does an incoming req see
system.mem_ctrls.wrQLenPdf::4                       1                       # What write queue length does an incoming req see
system.mem_ctrls.wrQLenPdf::5                       1                       # What write queue length does an incoming req see
system.mem_ctrls.wrQLenPdf::6                       1                       # What write queue length does an incoming req see
system.mem_ctrls.wrQLenPdf::7                       1                       # What write queue length does an incoming req see
system.mem_ctrls.wrQLenPdf::8                       1                       # What write queue length does an incoming req see
system.mem_ctrls.wrQLenPdf::9                       1                       # What write queue length does an incoming req see
system.mem_ctrls.wrQLenPdf::10                      1                       # What write queue length does an incoming req see
system.mem_ctrls.wrQLenPdf::11                      1                       # What write queue length does an incoming req see
system.mem_ctrls.wrQLenPdf::12                      1                       # What write queue length does an incoming req see
system.mem_ctrls.wrQLenPdf::13                      1                       # What write queue length does an incoming req see
system.mem_ctrls.wrQLenPdf::14                      1                       # What write queue length does an incoming req see
system.mem_ctrls.wrQLenPdf::15                   3176                       # What write queue length does an incoming req see
system.mem_ctrls.wrQLenPdf::16                   3707                       # What write queue length does an incoming req see
system.mem_ctrls.wrQLenPdf::17                   6910                       # What write queue length does an incoming req see
system.mem_ctrls.wrQLenPdf::18                   9224                       # What write queue length does an incoming req see
system.mem_ctrls.wrQLenPdf::19                  10735                       # What write queue length does an incoming req see
system.mem_ctrls.wrQLenPdf::20                  11987                       # What write queue length does an incoming req see
system.mem_ctrls.wrQLenPdf::21                  12904                       # What write queue length does an incoming req see
system.mem_ctrls.wrQLenPdf::22                  14021                       # What write queue length does an incoming req see
system.mem_ctrls.wrQLenPdf::23                  14861                       # What write queue length does an incoming req see
system.mem_ctrls.wrQLenPdf::24                  15956                       # What write queue length does an incoming req see
system.mem_ctrls.wrQLenPdf::25                  16340                       # What write queue length does an incoming req see
system.mem_ctrls.wrQLenPdf::26                  16576                       # What write queue length does an incoming req see
system.mem_ctrls.wrQLenPdf::27                  16818                       # What write queue length does an incoming req see
system.mem_ctrls.wrQLenPdf::28                  17457                       # What write queue length does an incoming req see
system.mem_ctrls.wrQLenPdf::29                  16201                       # What write queue length does an incoming req see
system.mem_ctrls.wrQLenPdf::30                  15910                       # What write queue length does an incoming req see
system.mem_ctrls.wrQLenPdf::31                  15558                       # What write queue length does an incoming req see
system.mem_ctrls.wrQLenPdf::32                  14724                       # What write queue length does an incoming req see
system.mem_ctrls.wrQLenPdf::33                   1335                       # What write queue length does an incoming req see
system.mem_ctrls.wrQLenPdf::34                    985                       # What write queue length does an incoming req see
system.mem_ctrls.wrQLenPdf::35                    833                       # What write queue length does an incoming req see
system.mem_ctrls.wrQLenPdf::36                    691                       # What write queue length does an incoming req see
system.mem_ctrls.wrQLenPdf::37                    582                       # What write queue length does an incoming req see
system.mem_ctrls.wrQLenPdf::38                    514                       # What write queue length does an incoming req see
system.mem_ctrls.wrQLenPdf::39                    462                       # What write queue length does an incoming req see
system.mem_ctrls.wrQLenPdf::40                    439                       # What write queue length does an incoming req see
system.mem_ctrls.wrQLenPdf::41                    393                       # What write queue length does an incoming req see
system.mem_ctrls.wrQLenPdf::42                    383                       # What write queue length does an incoming req see
system.mem_ctrls.wrQLenPdf::43                    386                       # What write queue length does an incoming req see
system.mem_ctrls.wrQLenPdf::44                    348                       # What write queue length does an incoming req see
system.mem_ctrls.wrQLenPdf::45                    345                       # What write queue length does an incoming req see
system.mem_ctrls.wrQLenPdf::46                    315                       # What write queue length does an incoming req see
system.mem_ctrls.wrQLenPdf::47                    328                       # What write queue length does an incoming req see
system.mem_ctrls.wrQLenPdf::48                    337                       # What write queue length does an incoming req see
system.mem_ctrls.wrQLenPdf::49                    314                       # What write queue length does an incoming req see
system.mem_ctrls.wrQLenPdf::50                    302                       # What write queue length does an incoming req see
system.mem_ctrls.wrQLenPdf::51                    295                       # What write queue length does an incoming req see
system.mem_ctrls.wrQLenPdf::52                    278                       # What write queue length does an incoming req see
system.mem_ctrls.wrQLenPdf::53                    274                       # What write queue length does an incoming req see
system.mem_ctrls.wrQLenPdf::54                    264                       # What write queue length does an incoming req see
system.mem_ctrls.wrQLenPdf::55                    203                       # What write queue length does an incoming req see
system.mem_ctrls.wrQLenPdf::56                    151                       # What write queue length does an incoming req see
system.mem_ctrls.wrQLenPdf::57                    126                       # What write queue length does an incoming req see
system.mem_ctrls.wrQLenPdf::58                    115                       # What write queue length does an incoming req see
system.mem_ctrls.wrQLenPdf::59                    102                       # What write queue length does an incoming req see
system.mem_ctrls.wrQLenPdf::60                     77                       # What write queue length does an incoming req see
system.mem_ctrls.wrQLenPdf::61                     58                       # What write queue length does an incoming req see
system.mem_ctrls.wrQLenPdf::62                     42                       # What write queue length does an incoming req see
system.mem_ctrls.wrQLenPdf::63                     46                       # What write queue length does an incoming req see
system.mem_ctrls.bytesPerActivate::samples       282073                       # Bytes accessed per row activation
system.mem_ctrls.bytesPerActivate::mean    177.737593                       # Bytes accessed per row activation
system.mem_ctrls.bytesPerActivate::gmean   112.855502                       # Bytes accessed per row activation
system.mem_ctrls.bytesPerActivate::stdev   231.497453                       # Bytes accessed per row activation
system.mem_ctrls.bytesPerActivate::0-127       165991     58.85%     58.85% # Bytes accessed per row activation
system.mem_ctrls.bytesPerActivate::128-255        63774     22.61%     81.46% # Bytes accessed per row activation
system.mem_ctrls.bytesPerActivate::256-383        17762      6.30%     87.75% # Bytes accessed per row activation
system.mem_ctrls.bytesPerActivate::384-511         8967      3.18%     90.93% # Bytes accessed per row activation
system.mem_ctrls.bytesPerActivate::512-639         5829      2.07%     93.00% # Bytes accessed per row activation
system.mem_ctrls.bytesPerActivate::640-767         3514      1.25%     94.24% # Bytes accessed per row activation
system.mem_ctrls.bytesPerActivate::768-895         2433      0.86%     95.11% # Bytes accessed per row activation
system.mem_ctrls.bytesPerActivate::896-1023         1999      0.71%     95.82% # Bytes accessed per row activation
system.mem_ctrls.bytesPerActivate::1024-1151        11804      4.18%    100.00% # Bytes accessed per row activation
system.mem_ctrls.bytesPerActivate::total       282073                       # Bytes accessed per row activation
system.mem_ctrls.rdPerTurnAround::samples        13907                       # Reads before turning the bus around for writes
system.mem_ctrls.rdPerTurnAround::mean      38.754512                       # Reads before turning the bus around for writes
system.mem_ctrls.rdPerTurnAround::stdev    147.867702                       # Reads before turning the bus around for writes
system.mem_ctrls.rdPerTurnAround::0-1023        13903     99.97%     99.97% # Reads before turning the bus around for writes
system.mem_ctrls.rdPerTurnAround::1024-2047            3      0.02%     99.99% # Reads before turning the bus around for writes
system.mem_ctrls.rdPerTurnAround::16384-17407            1      0.01%    100.00% # Reads before turning the bus around for writes
system.mem_ctrls.rdPerTurnAround::total         13907                       # Reads before turning the bus around for writes
system.mem_ctrls.wrPerTurnAround::samples        13907                       # Writes before turning the bus around for reads
system.mem_ctrls.wrPerTurnAround::mean      17.572230                       # Writes before turning the bus around for reads
system.mem_ctrls.wrPerTurnAround::gmean     17.194600                       # Writes before turning the bus around for reads
system.mem_ctrls.wrPerTurnAround::stdev      5.038327                       # Writes before turning the bus around for reads
system.mem_ctrls.wrPerTurnAround::16-17         10041     72.20%     72.20% # Writes before turning the bus around for reads
system.mem_ctrls.wrPerTurnAround::18-19          2745     19.74%     91.94% # Writes before turning the bus around for reads
system.mem_ctrls.wrPerTurnAround::20-21           374      2.69%     94.63% # Writes before turning the bus around for reads
system.mem_ctrls.wrPerTurnAround::22-23           119      0.86%     95.48% # Writes before turning the bus around for reads
system.mem_ctrls.wrPerTurnAround::24-25            68      0.49%     95.97% # Writes before turning the bus around for reads
system.mem_ctrls.wrPerTurnAround::26-27            50      0.36%     96.33% # Writes before turning the bus around for reads
system.mem_ctrls.wrPerTurnAround::28-29            33      0.24%     96.57% # Writes before turning the bus around for reads
system.mem_ctrls.wrPerTurnAround::30-31           106      0.76%     97.33% # Writes before turning the bus around for reads
system.mem_ctrls.wrPerTurnAround::32-33            51      0.37%     97.70% # Writes before turning the bus around for reads
system.mem_ctrls.wrPerTurnAround::34-35            69      0.50%     98.20% # Writes before turning the bus around for reads
system.mem_ctrls.wrPerTurnAround::36-37            48      0.35%     98.54% # Writes before turning the bus around for reads
system.mem_ctrls.wrPerTurnAround::38-39            35      0.25%     98.79% # Writes before turning the bus around for reads
system.mem_ctrls.wrPerTurnAround::40-41            25      0.18%     98.97% # Writes before turning the bus around for reads
system.mem_ctrls.wrPerTurnAround::42-43            20      0.14%     99.12% # Writes before turning the bus around for reads
system.mem_ctrls.wrPerTurnAround::44-45            18      0.13%     99.24% # Writes before turning the bus around for reads
system.mem_ctrls.wrPerTurnAround::46-47            11      0.08%     99.32% # Writes before turning the bus around for reads
system.mem_ctrls.wrPerTurnAround::48-49            17      0.12%     99.45% # Writes before turning the bus around for reads
system.mem_ctrls.wrPerTurnAround::50-51             8      0.06%     99.50% # Writes before turning the bus around for reads
system.mem_ctrls.wrPerTurnAround::52-53             8      0.06%     99.56% # Writes before turning the bus around for reads
system.mem_ctrls.wrPerTurnAround::54-55             7      0.05%     99.61% # Writes before turning the bus around for reads
system.mem_ctrls.wrPerTurnAround::56-57            12      0.09%     99.70% # Writes before turning the bus around for reads
system.mem_ctrls.wrPerTurnAround::58-59             6      0.04%     99.74% # Writes before turning the bus around for reads
system.mem_ctrls.wrPerTurnAround::60-61             3      0.02%     99.76% # Writes before turning the bus around for reads
system.mem_ctrls.wrPerTurnAround::62-63             2      0.01%     99.78% # Writes before turning the bus around for reads
system.mem_ctrls.wrPerTurnAround::64-65             7      0.05%     99.83% # Writes before turning the bus around for reads
system.mem_ctrls.wrPerTurnAround::66-67             4      0.03%     99.86% # Writes before turning the bus around for reads
system.mem_ctrls.wrPerTurnAround::68-69             5      0.04%     99.89% # Writes before turning the bus around for reads
system.mem_ctrls.wrPerTurnAround::70-71             2      0.01%     99.91% # Writes before turning the bus around for reads
system.mem_ctrls.wrPerTurnAround::72-73             3      0.02%     99.93% # Writes before turning the bus around for reads
system.mem_ctrls.wrPerTurnAround::74-75             1      0.01%     99.94% # Writes before turning the bus around for reads
system.mem_ctrls.wrPerTurnAround::76-77             2      0.01%     99.95% # Writes before turning the bus around for reads
system.mem_ctrls.wrPerTurnAround::78-79             2      0.01%     99.96% # Writes before turning the bus around for reads
system.mem_ctrls.wrPerTurnAround::86-87             2      0.01%     99.98% # Writes before turning the bus around for reads
system.mem_ctrls.wrPerTurnAround::88-89             2      0.01%     99.99% # Writes before turning the bus around for reads
system.mem_ctrls.wrPerTurnAround::110-111            1      0.01%    100.00% # Writes before turning the bus around for reads
system.mem_ctrls.wrPerTurnAround::total         13907                       # Writes before turning the bus around for reads
system.mem_ctrls.totQLat                  18339950597                       # Total ticks spent queuing
system.mem_ctrls.totMemAccLat             28445938097                       # Total ticks spent from burst creation until serviced by the DRAM
system.mem_ctrls.totBusLat                 2694930000                       # Total ticks spent in databus transfers
system.mem_ctrls.avgQLat                     34026.77                       # Average queueing delay per DRAM burst
system.mem_ctrls.avgBusLat                    5000.00                       # Average bus latency per DRAM burst
system.mem_ctrls.avgMemAccLat                52776.77                       # Average memory access latency per DRAM burst
system.mem_ctrls.avgRdBW                       734.37                       # Average DRAM read bandwidth in MiByte/s
system.mem_ctrls.avgWrBW                       332.96                       # Average achieved write bandwidth in MiByte/s
system.mem_ctrls.avgRdBWSys                    735.56                       # Average system read bandwidth in MiByte/s
system.mem_ctrls.avgWrBWSys                    333.00                       # Average system write bandwidth in MiByte/s
system.mem_ctrls.peakBW                      12800.00                       # Theoretical peak bandwidth in MiByte/s
system.mem_ctrls.busUtil                         8.34                       # Data bus utilization in percentage
system.mem_ctrls.busUtilRead                     5.74                       # Data bus utilization in percentage for reads
system.mem_ctrls.busUtilWrite                    2.60                       # Data bus utilization in percentage for writes
system.mem_ctrls.avgRdQLen                       1.98                       # Average read queue length when enqueuing
system.mem_ctrls.avgWrQLen                      25.21                       # Average write queue length when enqueuing
system.mem_ctrls.readRowHits                   392314                       # Number of row buffer hits during reads
system.mem_ctrls.writeRowHits                  108972                       # Number of row buffer hits during writes
system.mem_ctrls.readRowHitRate                 72.79                       # Row buffer hit rate for reads
system.mem_ctrls.writeRowHitRate                44.59                       # Row buffer hit rate for writes
system.mem_ctrls.avgGap                      59893.49                       # Average gap between requests
system.mem_ctrls.pageHitRate                    63.99                       # Row buffer hit rate, read and write combined
system.mem_ctrls.memoryStateTime::IDLE     1776530803                       # Time in different power states
system.mem_ctrls.memoryStateTime::REF      1568320000                       # Time in different power states
system.mem_ctrls.memoryStateTime::PRE_PDN            0                       # Time in different power states
system.mem_ctrls.memoryStateTime::ACT     43622381197                       # Time in different power states
system.mem_ctrls.memoryStateTime::ACT_PDN            0                       # Time in different power states
system.mem_ctrls.actEnergy::0              1069588800                       # Energy for activate commands per rank (pJ)
system.mem_ctrls.actEnergy::1              1062883080                       # Energy for activate commands per rank (pJ)
system.mem_ctrls.preEnergy::0               583605000                       # Energy for precharge commands per rank (pJ)
system.mem_ctrls.preEnergy::1               579946125                       # Energy for precharge commands per rank (pJ)
system.mem_ctrls.readEnergy::0             2114892000                       # Energy for read commands per rank (pJ)
system.mem_ctrls.readEnergy::1             2089167600                       # Energy for read commands per rank (pJ)
system.mem_ctrls.writeEnergy::0             755879040                       # Energy for write commands per rank (pJ)
system.mem_ctrls.writeEnergy::1             827683920                       # Energy for write commands per rank (pJ)
system.mem_ctrls.refreshEnergy::0          3067633920                       # Energy for refresh commands per rank (pJ)
system.mem_ctrls.refreshEnergy::1          3067633920                       # Energy for refresh commands per rank (pJ)
system.mem_ctrls.actBackEnergy::0         28849179150                       # Energy for active background per rank (pJ)
system.mem_ctrls.actBackEnergy::1         28426084965                       # Energy for active background per rank (pJ)
system.mem_ctrls.preBackEnergy::0          2873854500                       # Energy for precharge background per rank (pJ)
system.mem_ctrls.preBackEnergy::1          3244989750                       # Energy for precharge background per rank (pJ)
system.mem_ctrls.totalEnergy::0           39314632410                       # Total energy per rank (pJ)
system.mem_ctrls.totalEnergy::1           39298389360                       # Total energy per rank (pJ)
system.mem_ctrls.averagePower::0           837.070696                       # Core power per rank (mW)
system.mem_ctrls.averagePower::1           836.724856                       # Core power per rank (mW)
system.cpu_voltage_domain.voltage                   1                       # Voltage in Volts
system.cpu_clk_domain.clock                       500                       # Clock period in ticks
system.tol2bus.trans_dist::ReadReq            2281356                       # Transaction distribution
system.tol2bus.trans_dist::ReadResp           2281305                       # Transaction distribution
system.tol2bus.trans_dist::WriteReq              2674                       # Transaction distribution
system.tol2bus.trans_dist::WriteResp             2674                       # Transaction distribution
system.tol2bus.trans_dist::Writeback           562704                       # Transaction distribution
system.tol2bus.trans_dist::HardPFReq           844786                       # Transaction distribution
system.tol2bus.trans_dist::HardPFResp               6                       # Transaction distribution
system.tol2bus.trans_dist::WriteInvalidateReq        45715                       # Transaction distribution
system.tol2bus.trans_dist::UpgradeReq           39236                       # Transaction distribution
system.tol2bus.trans_dist::SCUpgradeReq         18772                       # Transaction distribution
system.tol2bus.trans_dist::UpgradeResp          58008                       # Transaction distribution
system.tol2bus.trans_dist::SCUpgradeFailReq            3                       # Transaction distribution
system.tol2bus.trans_dist::UpgradeFailResp            3                       # Transaction distribution
system.tol2bus.trans_dist::ReadExReq           366688                       # Transaction distribution
system.tol2bus.trans_dist::ReadExResp          366688                       # Transaction distribution
system.tol2bus.pkt_count_system.cpu0.icache.mem_side::system.l2.cpu_side       254818                       # Packet count per connected master and slave (bytes)
system.tol2bus.pkt_count_system.cpu0.dcache.mem_side::system.l2.cpu_side       151365                       # Packet count per connected master and slave (bytes)
system.tol2bus.pkt_count_system.cpu0.itb.walker.dma::system.l2.cpu_side        11332                       # Packet count per connected master and slave (bytes)
system.tol2bus.pkt_count_system.cpu0.dtb.walker.dma::system.l2.cpu_side        28581                       # Packet count per connected master and slave (bytes)
system.tol2bus.pkt_count_system.cpu1.icache.mem_side::system.l2.cpu_side        49304                       # Packet count per connected master and slave (bytes)
system.tol2bus.pkt_count_system.cpu1.dcache.mem_side::system.l2.cpu_side        34514                       # Packet count per connected master and slave (bytes)
system.tol2bus.pkt_count_system.cpu1.itb.walker.dma::system.l2.cpu_side         3366                       # Packet count per connected master and slave (bytes)
system.tol2bus.pkt_count_system.cpu1.dtb.walker.dma::system.l2.cpu_side         6919                       # Packet count per connected master and slave (bytes)
system.tol2bus.pkt_count_system.cpu2.icache.mem_side::system.l2.cpu_side       455204                       # Packet count per connected master and slave (bytes)
system.tol2bus.pkt_count_system.cpu2.dcache.mem_side::system.l2.cpu_side       415766                       # Packet count per connected master and slave (bytes)
system.tol2bus.pkt_count_system.cpu2.itb.walker.dma::system.l2.cpu_side        18731                       # Packet count per connected master and slave (bytes)
system.tol2bus.pkt_count_system.cpu2.dtb.walker.dma::system.l2.cpu_side        53065                       # Packet count per connected master and slave (bytes)
system.tol2bus.pkt_count_system.cpu3.icache.mem_side::system.l2.cpu_side       375528                       # Packet count per connected master and slave (bytes)
system.tol2bus.pkt_count_system.cpu3.dcache.mem_side::system.l2.cpu_side       481546                       # Packet count per connected master and slave (bytes)
system.tol2bus.pkt_count_system.cpu3.itb.walker.dma::system.l2.cpu_side        19820                       # Packet count per connected master and slave (bytes)
system.tol2bus.pkt_count_system.cpu3.dtb.walker.dma::system.l2.cpu_side        43061                       # Packet count per connected master and slave (bytes)
system.tol2bus.pkt_count_system.cpu4.icache.mem_side::system.l2.cpu_side       152538                       # Packet count per connected master and slave (bytes)
system.tol2bus.pkt_count_system.cpu4.dcache.mem_side::system.l2.cpu_side       132534                       # Packet count per connected master and slave (bytes)
system.tol2bus.pkt_count_system.cpu4.itb.walker.dma::system.l2.cpu_side        13101                       # Packet count per connected master and slave (bytes)
system.tol2bus.pkt_count_system.cpu4.dtb.walker.dma::system.l2.cpu_side        23322                       # Packet count per connected master and slave (bytes)
system.tol2bus.pkt_count_system.cpu5.icache.mem_side::system.l2.cpu_side       112552                       # Packet count per connected master and slave (bytes)
system.tol2bus.pkt_count_system.cpu5.dcache.mem_side::system.l2.cpu_side        98852                       # Packet count per connected master and slave (bytes)
system.tol2bus.pkt_count_system.cpu5.itb.walker.dma::system.l2.cpu_side        10985                       # Packet count per connected master and slave (bytes)
system.tol2bus.pkt_count_system.cpu5.dtb.walker.dma::system.l2.cpu_side        17308                       # Packet count per connected master and slave (bytes)
system.tol2bus.pkt_count_system.cpu6.icache.mem_side::system.l2.cpu_side      1002395                       # Packet count per connected master and slave (bytes)
system.tol2bus.pkt_count_system.cpu6.dcache.mem_side::system.l2.cpu_side       721562                       # Packet count per connected master and slave (bytes)
system.tol2bus.pkt_count_system.cpu6.itb.walker.dma::system.l2.cpu_side        26327                       # Packet count per connected master and slave (bytes)
system.tol2bus.pkt_count_system.cpu6.dtb.walker.dma::system.l2.cpu_side       114479                       # Packet count per connected master and slave (bytes)
system.tol2bus.pkt_count_system.cpu7.icache.mem_side::system.l2.cpu_side       244198                       # Packet count per connected master and slave (bytes)
system.tol2bus.pkt_count_system.cpu7.dcache.mem_side::system.l2.cpu_side       597718                       # Packet count per connected master and slave (bytes)
system.tol2bus.pkt_count_system.cpu7.itb.walker.dma::system.l2.cpu_side        12277                       # Packet count per connected master and slave (bytes)
system.tol2bus.pkt_count_system.cpu7.dtb.walker.dma::system.l2.cpu_side        33232                       # Packet count per connected master and slave (bytes)
system.tol2bus.pkt_count::total               5716300                       # Packet count per connected master and slave (bytes)
system.tol2bus.pkt_size_system.cpu0.icache.mem_side::system.l2.cpu_side      8154176                       # Cumulative packet size per connected master and slave (bytes)
system.tol2bus.pkt_size_system.cpu0.dcache.mem_side::system.l2.cpu_side      5205503                       # Cumulative packet size per connected master and slave (bytes)
system.tol2bus.pkt_size_system.cpu0.itb.walker.dma::system.l2.cpu_side        20112                       # Cumulative packet size per connected master and slave (bytes)
system.tol2bus.pkt_size_system.cpu0.dtb.walker.dma::system.l2.cpu_side        49556                       # Cumulative packet size per connected master and slave (bytes)
system.tol2bus.pkt_size_system.cpu1.icache.mem_side::system.l2.cpu_side      1577728                       # Cumulative packet size per connected master and slave (bytes)
system.tol2bus.pkt_size_system.cpu1.dcache.mem_side::system.l2.cpu_side      1037322                       # Cumulative packet size per connected master and slave (bytes)
system.tol2bus.pkt_size_system.cpu1.itb.walker.dma::system.l2.cpu_side         4392                       # Cumulative packet size per connected master and slave (bytes)
system.tol2bus.pkt_size_system.cpu1.dtb.walker.dma::system.l2.cpu_side         9052                       # Cumulative packet size per connected master and slave (bytes)
system.tol2bus.pkt_size_system.cpu2.icache.mem_side::system.l2.cpu_side     14566016                       # Cumulative packet size per connected master and slave (bytes)
system.tol2bus.pkt_size_system.cpu2.dcache.mem_side::system.l2.cpu_side     15552216                       # Cumulative packet size per connected master and slave (bytes)
system.tol2bus.pkt_size_system.cpu2.itb.walker.dma::system.l2.cpu_side        32252                       # Cumulative packet size per connected master and slave (bytes)
system.tol2bus.pkt_size_system.cpu2.dtb.walker.dma::system.l2.cpu_side        84720                       # Cumulative packet size per connected master and slave (bytes)
system.tol2bus.pkt_size_system.cpu3.icache.mem_side::system.l2.cpu_side     12016896                       # Cumulative packet size per connected master and slave (bytes)
system.tol2bus.pkt_size_system.cpu3.dcache.mem_side::system.l2.cpu_side     17485060                       # Cumulative packet size per connected master and slave (bytes)
system.tol2bus.pkt_size_system.cpu3.itb.walker.dma::system.l2.cpu_side        23016                       # Cumulative packet size per connected master and slave (bytes)
system.tol2bus.pkt_size_system.cpu3.dtb.walker.dma::system.l2.cpu_side        51516                       # Cumulative packet size per connected master and slave (bytes)
system.tol2bus.pkt_size_system.cpu4.icache.mem_side::system.l2.cpu_side      4881216                       # Cumulative packet size per connected master and slave (bytes)
system.tol2bus.pkt_size_system.cpu4.dcache.mem_side::system.l2.cpu_side      4372360                       # Cumulative packet size per connected master and slave (bytes)
system.tol2bus.pkt_size_system.cpu4.itb.walker.dma::system.l2.cpu_side        12848                       # Cumulative packet size per connected master and slave (bytes)
system.tol2bus.pkt_size_system.cpu4.dtb.walker.dma::system.l2.cpu_side        25004                       # Cumulative packet size per connected master and slave (bytes)
system.tol2bus.pkt_size_system.cpu5.icache.mem_side::system.l2.cpu_side      3601664                       # Cumulative packet size per connected master and slave (bytes)
system.tol2bus.pkt_size_system.cpu5.dcache.mem_side::system.l2.cpu_side      3062968                       # Cumulative packet size per connected master and slave (bytes)
system.tol2bus.pkt_size_system.cpu5.itb.walker.dma::system.l2.cpu_side        10880                       # Cumulative packet size per connected master and slave (bytes)
system.tol2bus.pkt_size_system.cpu5.dtb.walker.dma::system.l2.cpu_side        18020                       # Cumulative packet size per connected master and slave (bytes)
system.tol2bus.pkt_size_system.cpu6.icache.mem_side::system.l2.cpu_side     32076096                       # Cumulative packet size per connected master and slave (bytes)
system.tol2bus.pkt_size_system.cpu6.dcache.mem_side::system.l2.cpu_side     26324656                       # Cumulative packet size per connected master and slave (bytes)
system.tol2bus.pkt_size_system.cpu6.itb.walker.dma::system.l2.cpu_side        35356                       # Cumulative packet size per connected master and slave (bytes)
system.tol2bus.pkt_size_system.cpu6.dtb.walker.dma::system.l2.cpu_side       159356                       # Cumulative packet size per connected master and slave (bytes)
system.tol2bus.pkt_size_system.cpu7.icache.mem_side::system.l2.cpu_side      7814272                       # Cumulative packet size per connected master and slave (bytes)
system.tol2bus.pkt_size_system.cpu7.dcache.mem_side::system.l2.cpu_side     23277376                       # Cumulative packet size per connected master and slave (bytes)
system.tol2bus.pkt_size_system.cpu7.itb.walker.dma::system.l2.cpu_side        23056                       # Cumulative packet size per connected master and slave (bytes)
system.tol2bus.pkt_size_system.cpu7.dtb.walker.dma::system.l2.cpu_side        56528                       # Cumulative packet size per connected master and slave (bytes)
system.tol2bus.pkt_size::total              181621189                       # Cumulative packet size per connected master and slave (bytes)
system.tol2bus.snoops                         1154683                       # Total snoops (count)
system.tol2bus.snoop_fanout::samples          4161796                       # Request fanout histogram
system.tol2bus.snoop_fanout::mean           47.214069                       # Request fanout histogram
system.tol2bus.snoop_fanout::stdev           0.410175                       # Request fanout histogram
system.tol2bus.snoop_fanout::underflows             0      0.00%      0.00% # Request fanout histogram
system.tol2bus.snoop_fanout::0                      0      0.00%      0.00% # Request fanout histogram
system.tol2bus.snoop_fanout::1                      0      0.00%      0.00% # Request fanout histogram
system.tol2bus.snoop_fanout::2                      0      0.00%      0.00% # Request fanout histogram
system.tol2bus.snoop_fanout::3                      0      0.00%      0.00% # Request fanout histogram
system.tol2bus.snoop_fanout::4                      0      0.00%      0.00% # Request fanout histogram
system.tol2bus.snoop_fanout::5                      0      0.00%      0.00% # Request fanout histogram
system.tol2bus.snoop_fanout::6                      0      0.00%      0.00% # Request fanout histogram
system.tol2bus.snoop_fanout::7                      0      0.00%      0.00% # Request fanout histogram
system.tol2bus.snoop_fanout::8                      0      0.00%      0.00% # Request fanout histogram
system.tol2bus.snoop_fanout::9                      0      0.00%      0.00% # Request fanout histogram
system.tol2bus.snoop_fanout::10                     0      0.00%      0.00% # Request fanout histogram
system.tol2bus.snoop_fanout::11                     0      0.00%      0.00% # Request fanout histogram
system.tol2bus.snoop_fanout::12                     0      0.00%      0.00% # Request fanout histogram
system.tol2bus.snoop_fanout::13                     0      0.00%      0.00% # Request fanout histogram
system.tol2bus.snoop_fanout::14                     0      0.00%      0.00% # Request fanout histogram
system.tol2bus.snoop_fanout::15                     0      0.00%      0.00% # Request fanout histogram
system.tol2bus.snoop_fanout::16                     0      0.00%      0.00% # Request fanout histogram
system.tol2bus.snoop_fanout::17                     0      0.00%      0.00% # Request fanout histogram
system.tol2bus.snoop_fanout::18                     0      0.00%      0.00% # Request fanout histogram
system.tol2bus.snoop_fanout::19                     0      0.00%      0.00% # Request fanout histogram
system.tol2bus.snoop_fanout::20                     0      0.00%      0.00% # Request fanout histogram
system.tol2bus.snoop_fanout::21                     0      0.00%      0.00% # Request fanout histogram
system.tol2bus.snoop_fanout::22                     0      0.00%      0.00% # Request fanout histogram
system.tol2bus.snoop_fanout::23                     0      0.00%      0.00% # Request fanout histogram
system.tol2bus.snoop_fanout::24                     0      0.00%      0.00% # Request fanout histogram
system.tol2bus.snoop_fanout::25                     0      0.00%      0.00% # Request fanout histogram
system.tol2bus.snoop_fanout::26                     0      0.00%      0.00% # Request fanout histogram
system.tol2bus.snoop_fanout::27                     0      0.00%      0.00% # Request fanout histogram
system.tol2bus.snoop_fanout::28                     0      0.00%      0.00% # Request fanout histogram
system.tol2bus.snoop_fanout::29                     0      0.00%      0.00% # Request fanout histogram
system.tol2bus.snoop_fanout::30                     0      0.00%      0.00% # Request fanout histogram
system.tol2bus.snoop_fanout::31                     0      0.00%      0.00% # Request fanout histogram
system.tol2bus.snoop_fanout::32                     0      0.00%      0.00% # Request fanout histogram
system.tol2bus.snoop_fanout::33                     0      0.00%      0.00% # Request fanout histogram
system.tol2bus.snoop_fanout::34                     0      0.00%      0.00% # Request fanout histogram
system.tol2bus.snoop_fanout::35                     0      0.00%      0.00% # Request fanout histogram
system.tol2bus.snoop_fanout::36                     0      0.00%      0.00% # Request fanout histogram
system.tol2bus.snoop_fanout::37                     0      0.00%      0.00% # Request fanout histogram
system.tol2bus.snoop_fanout::38                     0      0.00%      0.00% # Request fanout histogram
system.tol2bus.snoop_fanout::39                     0      0.00%      0.00% # Request fanout histogram
system.tol2bus.snoop_fanout::40                     0      0.00%      0.00% # Request fanout histogram
system.tol2bus.snoop_fanout::41                     0      0.00%      0.00% # Request fanout histogram
system.tol2bus.snoop_fanout::42                     0      0.00%      0.00% # Request fanout histogram
system.tol2bus.snoop_fanout::43                     0      0.00%      0.00% # Request fanout histogram
system.tol2bus.snoop_fanout::44                     0      0.00%      0.00% # Request fanout histogram
system.tol2bus.snoop_fanout::45                     0      0.00%      0.00% # Request fanout histogram
system.tol2bus.snoop_fanout::46                     0      0.00%      0.00% # Request fanout histogram
system.tol2bus.snoop_fanout::47               3270885     78.59%     78.59% # Request fanout histogram
system.tol2bus.snoop_fanout::48                890911     21.41%    100.00% # Request fanout histogram
system.tol2bus.snoop_fanout::overflows              0      0.00%    100.00% # Request fanout histogram
system.tol2bus.snoop_fanout::min_value             47                       # Request fanout histogram
system.tol2bus.snoop_fanout::max_value             48                       # Request fanout histogram
system.tol2bus.snoop_fanout::total            4161796                       # Request fanout histogram
system.tol2bus.reqLayer0.occupancy         2205606481                       # Layer occupancy (ticks)
system.tol2bus.reqLayer0.utilization              4.7                       # Layer utilization (%)
system.tol2bus.snoopLayer0.occupancy           547500                       # Layer occupancy (ticks)
system.tol2bus.snoopLayer0.utilization            0.0                       # Layer utilization (%)
system.tol2bus.respLayer0.occupancy         191831403                       # Layer occupancy (ticks)
system.tol2bus.respLayer0.utilization             0.4                       # Layer utilization (%)
system.tol2bus.respLayer1.occupancy          94313592                       # Layer occupancy (ticks)
system.tol2bus.respLayer1.utilization             0.2                       # Layer utilization (%)
system.tol2bus.respLayer2.occupancy           6320234                       # Layer occupancy (ticks)
system.tol2bus.respLayer2.utilization             0.0                       # Layer utilization (%)
system.tol2bus.respLayer3.occupancy          16236698                       # Layer occupancy (ticks)
system.tol2bus.respLayer3.utilization             0.0                       # Layer utilization (%)
system.tol2bus.respLayer6.occupancy          37177205                       # Layer occupancy (ticks)
system.tol2bus.respLayer6.utilization             0.1                       # Layer utilization (%)
system.tol2bus.respLayer7.occupancy          24399188                       # Layer occupancy (ticks)
system.tol2bus.respLayer7.utilization             0.1                       # Layer utilization (%)
system.tol2bus.respLayer8.occupancy           2272994                       # Layer occupancy (ticks)
system.tol2bus.respLayer8.utilization             0.0                       # Layer utilization (%)
system.tol2bus.respLayer9.occupancy           4671472                       # Layer occupancy (ticks)
system.tol2bus.respLayer9.utilization             0.0                       # Layer utilization (%)
system.tol2bus.respLayer12.occupancy        342682355                       # Layer occupancy (ticks)
system.tol2bus.respLayer12.utilization            0.7                       # Layer utilization (%)
system.tol2bus.respLayer13.occupancy        249083902                       # Layer occupancy (ticks)
system.tol2bus.respLayer13.utilization            0.5                       # Layer utilization (%)
system.tol2bus.respLayer14.occupancy         10716469                       # Layer occupancy (ticks)
system.tol2bus.respLayer14.utilization            0.0                       # Layer utilization (%)
system.tol2bus.respLayer15.occupancy         31955441                       # Layer occupancy (ticks)
system.tol2bus.respLayer15.utilization            0.1                       # Layer utilization (%)
system.tol2bus.respLayer18.occupancy        282676334                       # Layer occupancy (ticks)
[...]
system.cpu7.dcache.LoadLockedReq_mshr_miss_latency::switch_cpus7.data      3370000                       # number of LoadLockedReq MSHR miss cycles
system.cpu7.dcache.LoadLockedReq_mshr_miss_latency::total      3370000                       # number of LoadLockedReq MSHR miss cycles
system.cpu7.dcache.StoreCondReq_mshr_miss_latency::switch_cpus7.data      4896907                       # number of StoreCondReq MSHR miss cycles
system.cpu7.dcache.StoreCondReq_mshr_miss_latency::total      4896907                       # number of StoreCondReq MSHR miss cycles
system.cpu7.dcache.demand_mshr_miss_latency::switch_cpus7.data   2294081906                       # number of demand (read+write) MSHR miss cycles
system.cpu7.dcache.demand_mshr_miss_latency::total   2294081906                       # number of demand (read+write) MSHR miss cycles
system.cpu7.dcache.overall_mshr_miss_latency::switch_cpus7.data   5970116688                       # number of overall MSHR miss cycles
system.cpu7.dcache.overall_mshr_miss_latency::total   5970116688                       # number of overall MSHR miss cycles
system.cpu7.dcache.ReadReq_mshr_uncacheable_latency::switch_cpus7.data     75479499                       # number of ReadReq MSHR uncacheable cycles
system.cpu7.dcache.ReadReq_mshr_uncacheable_latency::total     75479499                       # number of ReadReq MSHR uncacheable cycles
system.cpu7.dcache.WriteReq_mshr_uncacheable_latency::switch_cpus7.data    115619000                       # number of WriteReq MSHR uncacheable cycles
system.cpu7.dcache.WriteReq_mshr_uncacheable_latency::total    115619000                       # number of WriteReq MSHR uncacheable cycles
system.cpu7.dcache.overall_mshr_uncacheable_latency::switch_cpus7.data    191098499                       # number of overall MSHR uncacheable cycles
system.cpu7.dcache.overall_mshr_uncacheable_latency::total    191098499                       # number of overall MSHR uncacheable cycles
system.cpu7.dcache.ReadReq_mshr_miss_rate::switch_cpus7.data     0.002980                       # mshr miss rate for ReadReq accesses
system.cpu7.dcache.ReadReq_mshr_miss_rate::total     0.002980                       # mshr miss rate for ReadReq accesses
system.cpu7.dcache.WriteReq_mshr_miss_rate::switch_cpus7.data     0.003992                       # mshr miss rate for WriteReq accesses
system.cpu7.dcache.WriteReq_mshr_miss_rate::total     0.003992                       # mshr miss rate for WriteReq accesses
system.cpu7.dcache.SoftPFReq_mshr_miss_rate::switch_cpus7.data     0.249907                       # mshr miss rate for SoftPFReq accesses
system.cpu7.dcache.SoftPFReq_mshr_miss_rate::total     0.249907                       # mshr miss rate for SoftPFReq accesses
system.cpu7.dcache.LoadLockedReq_mshr_miss_rate::switch_cpus7.data     0.004318                       # mshr miss rate for LoadLockedReq accesses
system.cpu7.dcache.LoadLockedReq_mshr_miss_rate::total     0.004318                       # mshr miss rate for LoadLockedReq accesses
system.cpu7.dcache.StoreCondReq_mshr_miss_rate::switch_cpus7.data     0.031204                       # mshr miss rate for StoreCondReq accesses
system.cpu7.dcache.StoreCondReq_mshr_miss_rate::total     0.031204                       # mshr miss rate for StoreCondReq accesses
system.cpu7.dcache.demand_mshr_miss_rate::switch_cpus7.data     0.003452                       # mshr miss rate for demand accesses
system.cpu7.dcache.demand_mshr_miss_rate::total     0.003452                       # mshr miss rate for demand accesses
system.cpu7.dcache.overall_mshr_miss_rate::switch_cpus7.data     0.004268                       # mshr miss rate for overall accesses
system.cpu7.dcache.overall_mshr_miss_rate::total     0.004268                       # mshr miss rate for overall accesses
system.cpu7.dcache.ReadReq_avg_mshr_miss_latency::switch_cpus7.data 11298.398336                       # average ReadReq mshr miss latency
system.cpu7.dcache.ReadReq_avg_mshr_miss_latency::total 11298.398336                       # average ReadReq mshr miss latency
system.cpu7.dcache.WriteReq_avg_mshr_miss_latency::switch_cpus7.data 13464.089027                       # average WriteReq mshr miss latency
system.cpu7.dcache.WriteReq_avg_mshr_miss_latency::total 13464.089027                       # average WriteReq mshr miss latency
system.cpu7.dcache.SoftPFReq_avg_mshr_miss_latency::switch_cpus7.data 83066.723505                       # average SoftPFReq mshr miss latency
system.cpu7.dcache.SoftPFReq_avg_mshr_miss_latency::total 83066.723505                       # average SoftPFReq mshr miss latency
system.cpu7.dcache.LoadLockedReq_avg_mshr_miss_latency::switch_cpus7.data 15601.851852                       # average LoadLockedReq mshr miss latency
system.cpu7.dcache.LoadLockedReq_avg_mshr_miss_latency::total 15601.851852                       # average LoadLockedReq mshr miss latency
system.cpu7.dcache.StoreCondReq_avg_mshr_miss_latency::switch_cpus7.data  3149.136334                       # average StoreCondReq mshr miss latency
system.cpu7.dcache.StoreCondReq_avg_mshr_miss_latency::total  3149.136334                       # average StoreCondReq mshr miss latency
system.cpu7.dcache.demand_avg_mshr_miss_latency::switch_cpus7.data 12466.887878                       # average overall mshr miss latency
system.cpu7.dcache.demand_avg_mshr_miss_latency::total 12466.887878                       # average overall mshr miss latency
system.cpu7.dcache.overall_avg_mshr_miss_latency::switch_cpus7.data 26153.979918                       # average overall mshr miss latency
system.cpu7.dcache.overall_avg_mshr_miss_latency::total 26153.979918                       # average overall mshr miss latency
system.cpu7.dcache.ReadReq_avg_mshr_uncacheable_latency::switch_cpus7.data          inf                       # average ReadReq mshr uncacheable latency
system.cpu7.dcache.ReadReq_avg_mshr_uncacheable_latency::total          inf                       # average ReadReq mshr uncacheable latency
system.cpu7.dcache.WriteReq_avg_mshr_uncacheable_latency::switch_cpus7.data          inf                       # average WriteReq mshr uncacheable latency
system.cpu7.dcache.WriteReq_avg_mshr_uncacheable_latency::total          inf                       # average WriteReq mshr uncacheable latency
system.cpu7.dcache.overall_avg_mshr_uncacheable_latency::switch_cpus7.data          inf                       # average overall mshr uncacheable latency
system.cpu7.dcache.overall_avg_mshr_uncacheable_latency::total          inf                       # average overall mshr uncacheable latency
system.cpu7.dcache.no_allocate_misses               0                       # Number of misses that were no-allocate
system.iocache.tags.replacements                46090                       # number of replacements
system.iocache.tags.tagsinuse               15.789594                       # Cycle average of tags in use
system.iocache.tags.total_refs                      0                       # Total number of references to valid blocks.
system.iocache.tags.sampled_refs                46106                       # Sample count of references to valid blocks.
system.iocache.tags.avg_refs                        0                       # Average number of references to valid blocks.
system.iocache.tags.warmup_cycle         3236190295000                       # Cycle when the warmup percentage was hit.
system.iocache.tags.occ_blocks::realview.ide    15.789594                       # Average occupied blocks per requestor
system.iocache.tags.occ_percent::realview.ide     0.986850                       # Average percentage of cache occupancy
system.iocache.tags.occ_percent::total       0.986850                       # Average percentage of cache occupancy
system.iocache.tags.occ_task_id_blocks::1023           16                       # Occupied blocks per task id
system.iocache.tags.age_task_id_blocks_1023::3           16                       # Occupied blocks per task id
system.iocache.tags.occ_task_id_percent::1023            1                       # Percentage of cache occupancy per task id
system.iocache.tags.tag_accesses               416634                       # Number of tag accesses
system.iocache.tags.data_accesses              416634                       # Number of data accesses
system.iocache.WriteInvalidateReq_hits::realview.ide        45696                       # number of WriteInvalidateReq hits
system.iocache.WriteInvalidateReq_hits::total        45696                       # number of WriteInvalidateReq hits
system.iocache.ReadReq_misses::realview.ide          410                       # number of ReadReq misses
system.iocache.ReadReq_misses::total              410                       # number of ReadReq misses
system.iocache.WriteInvalidateReq_misses::realview.ide          210                       # number of WriteInvalidateReq misses
system.iocache.WriteInvalidateReq_misses::total          210                       # number of WriteInvalidateReq misses
system.iocache.demand_misses::realview.ide          410                       # number of demand (read+write) misses
system.iocache.demand_misses::total               410                       # number of demand (read+write) misses
system.iocache.overall_misses::realview.ide          410                       # number of overall misses
system.iocache.overall_misses::total              410                       # number of overall misses
system.iocache.ReadReq_miss_latency::realview.ide     44809925                       # number of ReadReq miss cycles
system.iocache.ReadReq_miss_latency::total     44809925                       # number of ReadReq miss cycles
system.iocache.demand_miss_latency::realview.ide     44809925                       # number of demand (read+write) miss cycles
system.iocache.demand_miss_latency::total     44809925                       # number of demand (read+write) miss cycles
system.iocache.overall_miss_latency::realview.ide     44809925                       # number of overall miss cycles
system.iocache.overall_miss_latency::total     44809925                       # number of overall miss cycles
system.iocache.ReadReq_accesses::realview.ide          410                       # number of ReadReq accesses(hits+misses)
system.iocache.ReadReq_accesses::total            410                       # number of ReadReq accesses(hits+misses)
system.iocache.WriteInvalidateReq_accesses::realview.ide        45906                       # number of WriteInvalidateReq accesses(hits+misses)
system.iocache.WriteInvalidateReq_accesses::total        45906                       # number of WriteInvalidateReq accesses(hits+misses)
system.iocache.demand_accesses::realview.ide          410                       # number of demand (read+write) accesses
system.iocache.demand_accesses::total             410                       # number of demand (read+write) accesses
system.iocache.overall_accesses::realview.ide          410                       # number of overall (read+write) accesses
system.iocache.overall_accesses::total            410                       # number of overall (read+write) accesses
system.iocache.ReadReq_miss_rate::realview.ide            1                       # miss rate for ReadReq accesses
system.iocache.ReadReq_miss_rate::total             1                       # miss rate for ReadReq accesses
system.iocache.WriteInvalidateReq_miss_rate::realview.ide     0.004575                       # miss rate for WriteInvalidateReq accesses
system.iocache.WriteInvalidateReq_miss_rate::total     0.004575                       # miss rate for WriteInvalidateReq accesses
system.iocache.demand_miss_rate::realview.ide            1                       # miss rate for demand accesses
system.iocache.demand_miss_rate::total              1                       # miss rate for demand accesses
system.iocache.overall_miss_rate::realview.ide            1                       # miss rate for overall accesses
system.iocache.overall_miss_rate::total             1                       # miss rate for overall accesses
system.iocache.ReadReq_avg_miss_latency::realview.ide 109292.500000                       # average ReadReq miss latency
system.iocache.ReadReq_avg_miss_latency::total 109292.500000                       # average ReadReq miss latency
system.iocache.demand_avg_miss_latency::realview.ide 109292.500000                       # average overall miss latency
system.iocache.demand_avg_miss_latency::total 109292.500000                       # average overall miss latency
system.iocache.overall_avg_miss_latency::realview.ide 109292.500000                       # average overall miss latency
system.iocache.overall_avg_miss_latency::total 109292.500000                       # average overall miss latency
system.iocache.blocked_cycles::no_mshrs             0                       # number of cycles access was blocked
system.iocache.blocked_cycles::no_targets            0                       # number of cycles access was blocked
system.iocache.blocked::no_mshrs                    0                       # number of cycles access was blocked
system.iocache.blocked::no_targets                  0                       # number of cycles access was blocked
system.iocache.avg_blocked_cycles::no_mshrs          nan                       # average number of cycles each access was blocked
system.iocache.avg_blocked_cycles::no_targets          nan                       # average number of cycles each access was blocked
system.iocache.fast_writes                      45696                       # number of fast writes performed
system.iocache.cache_copies                         0                       # number of cache copies performed
system.iocache.ReadReq_mshr_misses::realview.ide          410                       # number of ReadReq MSHR misses
system.iocache.ReadReq_mshr_misses::total          410                       # number of ReadReq MSHR misses
system.iocache.WriteInvalidateReq_mshr_misses::realview.ide        45696                       # number of WriteInvalidateReq MSHR misses
system.iocache.WriteInvalidateReq_mshr_misses::total        45696                       # number of WriteInvalidateReq MSHR misses
system.iocache.demand_mshr_misses::realview.ide          410                       # number of demand (read+write) MSHR misses
system.iocache.demand_mshr_misses::total          410                       # number of demand (read+write) MSHR misses
system.iocache.overall_mshr_misses::realview.ide          410                       # number of overall MSHR misses
system.iocache.overall_mshr_misses::total          410                       # number of overall MSHR misses
system.iocache.ReadReq_mshr_miss_latency::realview.ide     23489925                       # number of ReadReq MSHR miss cycles
system.iocache.ReadReq_mshr_miss_latency::total     23489925                       # number of ReadReq MSHR miss cycles
system.iocache.WriteInvalidateReq_mshr_miss_latency::realview.ide   3571235089                       # number of WriteInvalidateReq MSHR miss cycles
system.iocache.WriteInvalidateReq_mshr_miss_latency::total   3571235089                       # number of WriteInvalidateReq MSHR miss cycles
system.iocache.demand_mshr_miss_latency::realview.ide     23489925                       # number of demand (read+write) MSHR miss cycles
system.iocache.demand_mshr_miss_latency::total     23489925                       # number of demand (read+write) MSHR miss cycles
system.iocache.overall_mshr_miss_latency::realview.ide     23489925                       # number of overall MSHR miss cycles
system.iocache.overall_mshr_miss_latency::total     23489925                       # number of overall MSHR miss cycles
system.iocache.ReadReq_mshr_miss_rate::realview.ide            1                       # mshr miss rate for ReadReq accesses
system.iocache.ReadReq_mshr_miss_rate::total            1                       # mshr miss rate for ReadReq accesses
system.iocache.WriteInvalidateReq_mshr_miss_rate::realview.ide     0.995425                       # mshr miss rate for WriteInvalidateReq accesses
system.iocache.WriteInvalidateReq_mshr_miss_rate::total     0.995425                       # mshr miss rate for WriteInvalidateReq accesses
system.iocache.demand_mshr_miss_rate::realview.ide            1                       # mshr miss rate for demand accesses
system.iocache.demand_mshr_miss_rate::total            1                       # mshr miss rate for demand accesses
system.iocache.overall_mshr_miss_rate::realview.ide            1                       # mshr miss rate for overall accesses
system.iocache.overall_mshr_miss_rate::total            1                       # mshr miss rate for overall accesses
system.iocache.ReadReq_avg_mshr_miss_latency::realview.ide 57292.500000                       # average ReadReq mshr miss latency
system.iocache.ReadReq_avg_mshr_miss_latency::total 57292.500000                       # average ReadReq mshr miss latency
system.iocache.WriteInvalidateReq_avg_mshr_miss_latency::realview.ide 78152.028383                       # average WriteInvalidateReq mshr miss latency
system.iocache.WriteInvalidateReq_avg_mshr_miss_latency::total 78152.028383                       # average WriteInvalidateReq mshr miss latency
system.iocache.demand_avg_mshr_miss_latency::realview.ide 57292.500000                       # average overall mshr miss latency
system.iocache.demand_avg_mshr_miss_latency::total 57292.500000                       # average overall mshr miss latency
system.iocache.overall_avg_mshr_miss_latency::realview.ide 57292.500000                       # average overall mshr miss latency
system.iocache.overall_avg_mshr_miss_latency::total 57292.500000                       # average overall mshr miss latency
system.iocache.no_allocate_misses                   0                       # Number of misses that were no-allocate
system.switch_cpus0.kern.inst.arm                   0                       # number of arm instructions executed
system.switch_cpus0.kern.inst.quiesce               0                       # number of quiesce instructions executed
system.switch_cpus1.kern.inst.arm                   0                       # number of arm instructions executed
system.switch_cpus1.kern.inst.quiesce               0                       # number of quiesce instructions executed
system.switch_cpus2.kern.inst.arm                   0                       # number of arm instructions executed
system.switch_cpus2.kern.inst.quiesce               0                       # number of quiesce instructions executed
system.switch_cpus3.kern.inst.arm                   0                       # number of arm instructions executed
system.switch_cpus3.kern.inst.quiesce               0                       # number of quiesce instructions executed
system.switch_cpus4.kern.inst.arm                   0                       # number of arm instructions executed
system.switch_cpus4.kern.inst.quiesce               0                       # number of quiesce instructions executed
system.switch_cpus5.kern.inst.arm                   0                       # number of arm instructions executed
system.switch_cpus5.kern.inst.quiesce               0                       # number of quiesce instructions executed
system.switch_cpus6.kern.inst.arm                   0                       # number of arm instructions executed
system.switch_cpus6.kern.inst.quiesce               0                       # number of quiesce instructions executed
system.switch_cpus7.kern.inst.arm                   0                       # number of arm instructions executed
system.switch_cpus7.kern.inst.quiesce               0                       # number of quiesce instructions executed

---------- End Simulation Statistics   ----------
