
---------- Begin Simulation Statistics ----------
sim_seconds                                  2.850102                       # Number of seconds simulated
sim_ticks                                2850101800000                       # Number of ticks simulated
final_tick                               2850101800000                       # Number of ticks from beginning of simulation (restored from checkpoints and never reset)
sim_freq                                 1000000000000                       # Frequency of simulated ticks
host_inst_rate                                1291585                       # Simulator instruction rate (inst/s)
host_op_rate                                  1628877                       # Simulator op (including micro ops) rate (op/s)
host_tick_rate                             4712083642                       # Simulator tick rate (ticks/s)
host_mem_usage                                 895488                       # Number of bytes of host memory used
host_seconds                                   604.85                       # Real time elapsed on the host
sim_insts                                   781214458                       # Number of instructions simulated
sim_ops                                     985225542                       # Number of ops (including micro ops) simulated
system.voltage_domain.voltage                       1                       # Voltage in Volts
system.clk_domain.clock                          1000                       # Clock period in ticks
system.realview.vram.bytes_read::realview.clcd    135168000                       # Number of bytes read from this memory
system.realview.vram.bytes_read::total      135168000                       # Number of bytes read from this memory
system.realview.vram.bytes_written::cpu0.data      1182720                       # Number of bytes written to this memory
system.realview.vram.bytes_written::cpu1.data       614912                       # Number of bytes written to this memory
system.realview.vram.bytes_written::cpu3.data       615680                       # Number of bytes written to this memory
system.realview.vram.bytes_written::total      2413312                       # Number of bytes written to this memory
system.realview.vram.num_reads::realview.clcd     16896000                       # Number of read requests responded to by this memory
system.realview.vram.num_reads::total        16896000                       # Number of read requests responded to by this memory
system.realview.vram.num_writes::cpu0.data       295680                       # Number of write requests responded to by this memory
system.realview.vram.num_writes::cpu1.data       153728                       # Number of write requests responded to by this memory
system.realview.vram.num_writes::cpu3.data       153920                       # Number of write requests responded to by this memory
system.realview.vram.num_writes::total         603328                       # Number of write requests responded to by this memory
system.realview.vram.bw_read::realview.clcd     47425674                       # Total read bandwidth from this memory (bytes/s)
system.realview.vram.bw_read::total          47425674                       # Total read bandwidth from this memory (bytes/s)
system.realview.vram.bw_write::cpu0.data       414975                       # Write bandwidth from this memory (bytes/s)
system.realview.vram.bw_write::cpu1.data       215751                       # Write bandwidth from this memory (bytes/s)
system.realview.vram.bw_write::cpu3.data       216020                       # Write bandwidth from this memory (bytes/s)
system.realview.vram.bw_write::total           846746                       # Write bandwidth from this memory (bytes/s)
system.realview.vram.bw_total::realview.clcd     47425674                       # Total bandwidth to/from this memory (bytes/s)
system.realview.vram.bw_total::cpu0.data       414975                       # Total bandwidth to/from this memory (bytes/s)
system.realview.vram.bw_total::cpu1.data       215751                       # Total bandwidth to/from this memory (bytes/s)
system.realview.vram.bw_total::cpu3.data       216020                       # Total bandwidth to/from this memory (bytes/s)
system.realview.vram.bw_total::total         48272420                       # Total bandwidth to/from this memory (bytes/s)
system.realview.nvmem.bytes_read::cpu0.inst           20                       # Number of bytes read from this memory
system.realview.nvmem.bytes_read::cpu1.inst           48                       # Number of bytes read from this memory
system.realview.nvmem.bytes_read::cpu2.inst           48                       # Number of bytes read from this memory
system.realview.nvmem.bytes_read::cpu3.inst           48                       # Number of bytes read from this memory
system.realview.nvmem.bytes_read::total           164                       # Number of bytes read from this memory
system.realview.nvmem.bytes_inst_read::cpu0.inst           20                       # Number of instructions bytes read from this memory
system.realview.nvmem.bytes_inst_read::cpu1.inst           48                       # Number of instructions bytes read from this memory
system.realview.nvmem.bytes_inst_read::cpu2.inst           48                       # Number of instructions bytes read from this memory
system.realview.nvmem.bytes_inst_read::cpu3.inst           48                       # Number of instructions bytes read from this memory
system.realview.nvmem.bytes_inst_read::total          164                       # Number of instructions bytes read from this memory
system.realview.nvmem.num_reads::cpu0.inst            5                       # Number of read requests responded to by this memory
system.realview.nvmem.num_reads::cpu1.inst           12                       # Number of read requests responded to by this memory
system.realview.nvmem.num_reads::cpu2.inst           12                       # Number of read requests responded to by this memory
system.realview.nvmem.num_reads::cpu3.inst           12                       # Number of read requests responded to by this memory
system.realview.nvmem.num_reads::total             41                       # Number of read requests responded to by this memory
system.realview.nvmem.bw_read::cpu0.inst            7                       # Total read bandwidth from this memory (bytes/s)
system.realview.nvmem.bw_read::cpu1.inst           17                       # Total read bandwidth from this memory (bytes/s)
system.realview.nvmem.bw_read::cpu2.inst           17                       # Total read bandwidth from this memory (bytes/s)
system.realview.nvmem.bw_read::cpu3.inst           17                       # Total read bandwidth from this memory (bytes/s)
system.realview.nvmem.bw_read::total               58                       # Total read bandwidth from this memory (bytes/s)
system.realview.nvmem.bw_inst_read::cpu0.inst            7                       # Instruction read bandwidth from this memory (bytes/s)
system.realview.nvmem.bw_inst_read::cpu1.inst           17                       # Instruction read bandwidth from this memory (bytes/s)
system.realview.nvmem.bw_inst_read::cpu2.inst           17                       # Instruction read bandwidth from this memory (bytes/s)
system.realview.nvmem.bw_inst_read::cpu3.inst           17                       # Instruction read bandwidth from this memory (bytes/s)
system.realview.nvmem.bw_inst_read::total           58                       # Instruction read bandwidth from this memory (bytes/s)
system.realview.nvmem.bw_total::cpu0.inst            7                       # Total bandwidth to/from this memory (bytes/s)
system.realview.nvmem.bw_total::cpu1.inst           17                       # Total bandwidth to/from this memory (bytes/s)
system.realview.nvmem.bw_total::cpu2.inst           17                       # Total bandwidth to/from this memory (bytes/s)
system.realview.nvmem.bw_total::cpu3.inst           17                       # Total bandwidth to/from this memory (bytes/s)
system.realview.nvmem.bw_total::total              58                       # Total bandwidth to/from this memory (bytes/s)
system.mem_ctrls.bytes_read::realview.ide       380856                       # Number of bytes read from this memory
system.mem_ctrls.bytes_read::cpu0.dtb.walker      1117812                       # Number of bytes read from this memory
system.mem_ctrls.bytes_read::cpu0.itb.walker       371852                       # Number of bytes read from this memory
system.mem_ctrls.bytes_read::cpu0.inst      929564212                       # Number of bytes read from this memory
system.mem_ctrls.bytes_read::cpu0.data      243219171                       # Number of bytes read from this memory
system.mem_ctrls.bytes_read::cpu1.dtb.walker       395364                       # Number of bytes read from this memory
system.mem_ctrls.bytes_read::cpu1.itb.walker       153600                       # Number of bytes read from this memory
system.mem_ctrls.bytes_read::cpu1.inst      968317216                       # Number of bytes read from this memory
system.mem_ctrls.bytes_read::cpu1.data      179832009                       # Number of bytes read from this memory
system.mem_ctrls.bytes_read::cpu2.dtb.walker       711088                       # Number of bytes read from this memory
system.mem_ctrls.bytes_read::cpu2.itb.walker       334052                       # Number of bytes read from this memory
system.mem_ctrls.bytes_read::cpu2.inst      745231800                       # Number of bytes read from this memory
system.mem_ctrls.bytes_read::cpu2.data      183313543                       # Number of bytes read from this memory
system.mem_ctrls.bytes_read::cpu3.dtb.walker       614920                       # Number of bytes read from this memory
system.mem_ctrls.bytes_read::cpu3.itb.walker       265696                       # Number of bytes read from this memory
system.mem_ctrls.bytes_read::cpu3.inst      651993640                       # Number of bytes read from this memory
system.mem_ctrls.bytes_read::cpu3.data      165370887                       # Number of bytes read from this memory
system.mem_ctrls.bytes_read::total         4071187718                       # Number of bytes read from this memory
system.mem_ctrls.bytes_inst_read::cpu0.inst    929564212                       # Number of instructions bytes read from this memory
system.mem_ctrls.bytes_inst_read::cpu1.inst    968317216                       # Number of instructions bytes read from this memory
system.mem_ctrls.bytes_inst_read::cpu2.inst    745231800                       # Number of instructions bytes read from this memory
system.mem_ctrls.bytes_inst_read::cpu3.inst    651993640                       # Number of instructions bytes read from this memory
system.mem_ctrls.bytes_inst_read::total    3295106868                       # Number of instructions bytes read from this memory
system.mem_ctrls.bytes_written::realview.ide     10930176                       # Number of bytes written to this memory
system.mem_ctrls.bytes_written::cpu0.data    190287192                       # Number of bytes written to this memory
system.mem_ctrls.bytes_written::cpu1.data     86579107                       # Number of bytes written to this memory
system.mem_ctrls.bytes_written::cpu2.data    140476540                       # Number of bytes written to this memory
system.mem_ctrls.bytes_written::cpu3.data    127105944                       # Number of bytes written to this memory
system.mem_ctrls.bytes_written::total       555378959                       # Number of bytes written to this memory
system.mem_ctrls.num_reads::realview.ide         8071                       # Number of read requests responded to by this memory
system.mem_ctrls.num_reads::cpu0.dtb.walker       279453                       # Number of read requests responded to by this memory
system.mem_ctrls.num_reads::cpu0.itb.walker        92963                       # Number of read requests responded to by this memory
system.mem_ctrls.num_reads::cpu0.inst       232391053                       # Number of read requests responded to by this memory
system.mem_ctrls.num_reads::cpu0.data        54187579                       # Number of read requests responded to by this memory
system.mem_ctrls.num_reads::cpu1.dtb.walker        98841                       # Number of read requests responded to by this memory
system.mem_ctrls.num_reads::cpu1.itb.walker        38400                       # Number of read requests responded to by this memory
system.mem_ctrls.num_reads::cpu1.inst       242079304                       # Number of read requests responded to by this memory
system.mem_ctrls.num_reads::cpu1.data        53325813                       # Number of read requests responded to by this memory
system.mem_ctrls.num_reads::cpu2.dtb.walker       177772                       # Number of read requests responded to by this memory
system.mem_ctrls.num_reads::cpu2.itb.walker        83513                       # Number of read requests responded to by this memory
system.mem_ctrls.num_reads::cpu2.inst       186307950                       # Number of read requests responded to by this memory
system.mem_ctrls.num_reads::cpu2.data        43629015                       # Number of read requests responded to by this memory
system.mem_ctrls.num_reads::cpu3.dtb.walker       153730                       # Number of read requests responded to by this memory
system.mem_ctrls.num_reads::cpu3.itb.walker        66424                       # Number of read requests responded to by this memory
system.mem_ctrls.num_reads::cpu3.inst       162998410                       # Number of read requests responded to by this memory
system.mem_ctrls.num_reads::cpu3.data        38597724                       # Number of read requests responded to by this memory
system.mem_ctrls.num_reads::total          1014516015                       # Number of read requests responded to by this memory
system.mem_ctrls.num_writes::realview.ide       170784                       # Number of write requests responded to by this memory
system.mem_ctrls.num_writes::cpu0.data       48448956                       # Number of write requests responded to by this memory
system.mem_ctrls.num_writes::cpu1.data       22014362                       # Number of write requests responded to by this memory
system.mem_ctrls.num_writes::cpu2.data       35861277                       # Number of write requests responded to by this memory
system.mem_ctrls.num_writes::cpu3.data       32366940                       # Number of write requests responded to by this memory
system.mem_ctrls.num_writes::total          138862319                       # Number of write requests responded to by this memory
system.mem_ctrls.bw_read::realview.ide         133629                       # Total read bandwidth from this memory (bytes/s)
system.mem_ctrls.bw_read::cpu0.dtb.walker       392201                       # Total read bandwidth from this memory (bytes/s)
system.mem_ctrls.bw_read::cpu0.itb.walker       130470                       # Total read bandwidth from this memory (bytes/s)
system.mem_ctrls.bw_read::cpu0.inst         326151232                       # Total read bandwidth from this memory (bytes/s)
system.mem_ctrls.bw_read::cpu0.data          85337012                       # Total read bandwidth from this memory (bytes/s)
system.mem_ctrls.bw_read::cpu1.dtb.walker       138719                       # Total read bandwidth from this memory (bytes/s)
system.mem_ctrls.bw_read::cpu1.itb.walker        53893                       # Total read bandwidth from this memory (bytes/s)
system.mem_ctrls.bw_read::cpu1.inst         339748291                       # Total read bandwidth from this memory (bytes/s)
system.mem_ctrls.bw_read::cpu1.data          63096697                       # Total read bandwidth from this memory (bytes/s)
system.mem_ctrls.bw_read::cpu2.dtb.walker       249496                       # Total read bandwidth from this memory (bytes/s)
system.mem_ctrls.bw_read::cpu2.itb.walker       117207                       # Total read bandwidth from this memory (bytes/s)
system.mem_ctrls.bw_read::cpu2.inst         261475502                       # Total read bandwidth from this memory (bytes/s)
system.mem_ctrls.bw_read::cpu2.data          64318244                       # Total read bandwidth from this memory (bytes/s)
system.mem_ctrls.bw_read::cpu3.dtb.walker       215754                       # Total read bandwidth from this memory (bytes/s)
system.mem_ctrls.bw_read::cpu3.itb.walker        93223                       # Total read bandwidth from this memory (bytes/s)
system.mem_ctrls.bw_read::cpu3.inst         228761527                       # Total read bandwidth from this memory (bytes/s)
system.mem_ctrls.bw_read::cpu3.data          58022800                       # Total read bandwidth from this memory (bytes/s)
system.mem_ctrls.bw_read::total            1428435896                       # Total read bandwidth from this memory (bytes/s)
system.mem_ctrls.bw_inst_read::cpu0.inst    326151232                       # Instruction read bandwidth from this memory (bytes/s)
system.mem_ctrls.bw_inst_read::cpu1.inst    339748291                       # Instruction read bandwidth from this memory (bytes/s)
system.mem_ctrls.bw_inst_read::cpu2.inst    261475502                       # Instruction read bandwidth from this memory (bytes/s)
system.mem_ctrls.bw_inst_read::cpu3.inst    228761527                       # Instruction read bandwidth from this memory (bytes/s)
system.mem_ctrls.bw_inst_read::total       1156136552                       # Instruction read bandwidth from this memory (bytes/s)
system.mem_ctrls.bw_write::realview.ide       3835012                       # Write bandwidth from this memory (bytes/s)
system.mem_ctrls.bw_write::cpu0.data         66765051                       # Write bandwidth from this memory (bytes/s)
system.mem_ctrls.bw_write::cpu1.data         30377549                       # Write bandwidth from this memory (bytes/s)
system.mem_ctrls.bw_write::cpu2.data         49288253                       # Write bandwidth from this memory (bytes/s)
system.mem_ctrls.bw_write::cpu3.data         44596984                       # Write bandwidth from this memory (bytes/s)
system.mem_ctrls.bw_write::total            194862850                       # Write bandwidth from this memory (bytes/s)
system.mem_ctrls.bw_total::realview.ide       3968641                       # Total bandwidth to/from this memory (bytes/s)
system.mem_ctrls.bw_total::cpu0.dtb.walker       392201                       # Total bandwidth to/from this memory (bytes/s)
system.mem_ctrls.bw_total::cpu0.itb.walker       130470                       # Total bandwidth to/from this memory (bytes/s)
system.mem_ctrls.bw_total::cpu0.inst        326151232                       # Total bandwidth to/from this memory (bytes/s)
system.mem_ctrls.bw_total::cpu0.data        152102063                       # Total bandwidth to/from this memory (bytes/s)
system.mem_ctrls.bw_total::cpu1.dtb.walker       138719                       # Total bandwidth to/from this memory (bytes/s)
system.mem_ctrls.bw_total::cpu1.itb.walker        53893                       # Total bandwidth to/from this memory (bytes/s)
system.mem_ctrls.bw_total::cpu1.inst        339748291                       # Total bandwidth to/from this memory (bytes/s)
system.mem_ctrls.bw_total::cpu1.data         93474246                       # Total bandwidth to/from this memory (bytes/s)
system.mem_ctrls.bw_total::cpu2.dtb.walker       249496                       # Total bandwidth to/from this memory (bytes/s)
system.mem_ctrls.bw_total::cpu2.itb.walker       117207                       # Total bandwidth to/from this memory (bytes/s)
system.mem_ctrls.bw_total::cpu2.inst        261475502                       # Total bandwidth to/from this memory (bytes/s)
system.mem_ctrls.bw_total::cpu2.data        113606497                       # Total bandwidth to/from this memory (bytes/s)
system.mem_ctrls.bw_total::cpu3.dtb.walker       215754                       # Total bandwidth to/from this memory (bytes/s)
system.mem_ctrls.bw_total::cpu3.itb.walker        93223                       # Total bandwidth to/from this memory (bytes/s)
system.mem_ctrls.bw_total::cpu3.inst        228761527                       # Total bandwidth to/from this memory (bytes/s)
system.mem_ctrls.bw_total::cpu3.data        102619784                       # Total bandwidth to/from this memory (bytes/s)
system.mem_ctrls.bw_total::total           1623298746                       # Total bandwidth to/from this memory (bytes/s)
system.mem_ctrls.readReqs                           0                       # Number of read requests accepted
system.mem_ctrls.writeReqs                          0                       # Number of write requests accepted
system.mem_ctrls.readBursts                         0                       # Number of DRAM read bursts, including those serviced by the write queue
system.mem_ctrls.writeBursts                        0                       # Number of DRAM write bursts, including those merged in the write queue
system.mem_ctrls.bytesReadDRAM                      0                       # Total number of bytes read from DRAM
system.mem_ctrls.bytesReadWrQ                       0                       # Total number of bytes read from write queue
system.mem_ctrls.bytesWritten                       0                       # Total number of bytes written to DRAM
system.mem_ctrls.bytesReadSys                       0                       # Total read bytes from the system interface side
system.mem_ctrls.bytesWrittenSys                    0                       # Total written bytes from the system interface side
system.mem_ctrls.servicedByWrQ                      0                       # Number of DRAM read bursts serviced by the write queue
system.mem_ctrls.mergedWrBursts                     0                       # Number of DRAM write bursts merged with an existing one
system.mem_ctrls.neitherReadNorWriteReqs            0                       # Number of requests that are neither read nor write
system.mem_ctrls.perBankRdBursts::0                 0                       # Per bank write bursts
system.mem_ctrls.perBankRdBursts::1                 0                       # Per bank write bursts
system.mem_ctrls.perBankRdBursts::2                 0                       # Per bank write bursts
system.mem_ctrls.perBankRdBursts::3                 0                       # Per bank write bursts
system.mem_ctrls.perBankRdBursts::4                 0                       # Per bank write bursts
system.mem_ctrls.perBankRdBursts::5                 0                       # Per bank write bursts
system.mem_ctrls.perBankRdBursts::6                 0                       # Per bank write bursts
system.mem_ctrls.perBankRdBursts::7                 0                       # Per bank write bursts
system.mem_ctrls.perBankRdBursts::8                 0                       # Per bank write bursts
system.mem_ctrls.perBankRdBursts::9                 0                       # Per bank write bursts
system.mem_ctrls.perBankRdBursts::10                0                       # Per bank write bursts
system.mem_ctrls.perBankRdBursts::11                0                       # Per bank write bursts
system.mem_ctrls.perBankRdBursts::12                0                       # Per bank write bursts
system.mem_ctrls.perBankRdBursts::13                0                       # Per bank write bursts
system.mem_ctrls.perBankRdBursts::14                0                       # Per bank write bursts
system.mem_ctrls.perBankRdBursts::15                0                       # Per bank write bursts
system.mem_ctrls.perBankWrBursts::0                 0                       # Per bank write bursts
system.mem_ctrls.perBankWrBursts::1                 0                       # Per bank write bursts
system.mem_ctrls.perBankWrBursts::2                 0                       # Per bank write bursts
system.mem_ctrls.perBankWrBursts::3                 0                       # Per bank write bursts
system.mem_ctrls.perBankWrBursts::4                 0                       # Per bank write bursts
system.mem_ctrls.perBankWrBursts::5                 0                       # Per bank write bursts
system.mem_ctrls.perBankWrBursts::6                 0                       # Per bank write bursts
system.mem_ctrls.perBankWrBursts::7                 0                       # Per bank write bursts
system.mem_ctrls.perBankWrBursts::8                 0                       # Per bank write bursts
system.mem_ctrls.perBankWrBursts::9                 0                       # Per bank write bursts
system.mem_ctrls.perBankWrBursts::10                0                       # Per bank write bursts
system.mem_ctrls.perBankWrBursts::11                0                       # Per bank write bursts
system.mem_ctrls.perBankWrBursts::12                0                       # Per bank write bursts
system.mem_ctrls.perBankWrBursts::13                0                       # Per bank write bursts
system.mem_ctrls.perBankWrBursts::14                0                       # Per bank write bursts
system.mem_ctrls.perBankWrBursts::15                0                       # Per bank write bursts
system.mem_ctrls.numRdRetry                         0                       # Number of times read queue was full causing retry
system.mem_ctrls.numWrRetry                         0                       # Number of times write queue was full causing retry
system.mem_ctrls.totGap                             0                       # Total gap between requests
system.mem_ctrls.readPktSize::0                     0                       # Read request sizes (log2)
system.mem_ctrls.readPktSize::1                     0                       # Read request sizes (log2)
system.mem_ctrls.readPktSize::2                     0                       # Read request sizes (log2)
system.mem_ctrls.readPktSize::3                     0                       # Read request sizes (log2)
system.mem_ctrls.readPktSize::4                     0                       # Read request sizes (log2)
system.mem_ctrls.readPktSize::5                     0                       # Read request sizes (log2)
system.mem_ctrls.readPktSize::6                     0                       # Read request sizes (log2)
system.mem_ctrls.writePktSize::0                    0                       # Write request sizes (log2)
system.mem_ctrls.writePktSize::1                    0                       # Write request sizes (log2)
system.mem_ctrls.writePktSize::2                    0                       # Write request sizes (log2)
system.mem_ctrls.writePktSize::3                    0                       # Write request sizes (log2)
system.mem_ctrls.writePktSize::4                    0                       # Write request sizes (log2)
system.mem_ctrls.writePktSize::5                    0                       # Write request sizes (log2)
system.mem_ctrls.writePktSize::6                    0                       # Write request sizes (log2)
system.mem_ctrls.rdQLenPdf::0                       0                       # What read queue length does an incoming req see
system.mem_ctrls.rdQLenPdf::1                       0                       # What read queue length does an incoming req see
system.mem_ctrls.rdQLenPdf::2                       0                       # What read queue length does an incoming req see
system.mem_ctrls.rdQLenPdf::3                       0                       # What read queue length does an incoming req see
system.mem_ctrls.rdQLenPdf::4                       0                       # What read queue length does an incoming req see
system.mem_ctrls.rdQLenPdf::5                       0                       # What read queue length does an incoming req see
system.mem_ctrls.rdQLenPdf::6                       0                       # What read queue length does an incoming req see
system.mem_ctrls.rdQLenPdf::7                       0                       # What read queue length does an incoming req see
system.mem_ctrls.rdQLenPdf::8                       0                       # What read queue length does an incoming req see
system.mem_ctrls.rdQLenPdf::9                       0                       # What read queue length does an incoming req see
system.mem_ctrls.rdQLenPdf::10                      0                       # What read queue length does an incoming req see
system.mem_ctrls.rdQLenPdf::11                      0                       # What read queue length does an incoming req see
system.mem_ctrls.rdQLenPdf::12                      0                       # What read queue length does an incoming req see
system.mem_ctrls.rdQLenPdf::13                      0                       # What read queue length does an incoming req see
system.mem_ctrls.rdQLenPdf::14                      0                       # What read queue length does an incoming req see
system.mem_ctrls.rdQLenPdf::15                      0                       # What read queue length does an incoming req see
system.mem_ctrls.rdQLenPdf::16                      0                       # What read queue length does an incoming req see
system.mem_ctrls.rdQLenPdf::17                      0                       # What read queue length does an incoming req see
system.mem_ctrls.rdQLenPdf::18                      0                       # What read queue length does an incoming req see
system.mem_ctrls.rdQLenPdf::19                      0                       # What read queue length does an incoming req see
system.mem_ctrls.rdQLenPdf::20                      0                       # What read queue length does an incoming req see
system.mem_ctrls.rdQLenPdf::21                      0                       # What read queue length does an incoming req see
system.mem_ctrls.rdQLenPdf::22                      0                       # What read queue length does an incoming req see
system.mem_ctrls.rdQLenPdf::23                      0                       # What read queue length does an incoming req see
system.mem_ctrls.rdQLenPdf::24                      0                       # What read queue length does an incoming req see
system.mem_ctrls.rdQLenPdf::25                      0                       # What read queue length does an incoming req see
system.mem_ctrls.rdQLenPdf::26                      0                       # What read queue length does an incoming req see
system.mem_ctrls.rdQLenPdf::27                      0                       # What read queue length does an incoming req see
system.mem_ctrls.rdQLenPdf::28                      0                       # What read queue length does an incoming req see
system.mem_ctrls.rdQLenPdf::29                      0                       # What read queue length does an incoming req see
system.mem_ctrls.rdQLenPdf::30                      0                       # What read queue length does an incoming req see
system.mem_ctrls.rdQLenPdf::31                      0                       # What read queue length does an incoming req see
system.mem_ctrls.wrQLenPdf::0                       0                       # What write queue length does an incoming req see
system.mem_ctrls.wrQLenPdf::1                       0                       # What write queue length does an incoming req see
system.mem_ctrls.wrQLenPdf::2                       0                       # What write queue length does an incoming req see
system.mem_ctrls.wrQLenPdf::3                       0                       # What write queue length does an incoming req see
system.mem_ctrls.wrQLenPdf::4                       0                       # What write queue length does an incoming req see
system.mem_ctrls.wrQLenPdf::5                       0                       # What write queue length does an incoming req see
system.mem_ctrls.wrQLenPdf::6                       0                       # What write queue length does an incoming req see
system.mem_ctrls.wrQLenPdf::7                       0                       # What write queue length does an incoming req see
system.mem_ctrls.wrQLenPdf::8                       0                       # What write queue length does an incoming req see
system.mem_ctrls.wrQLenPdf::9                       0                       # What write queue length does an incoming req see
system.mem_ctrls.wrQLenPdf::10                      0                       # What write queue length does an incoming req see
system.mem_ctrls.wrQLenPdf::11                      0                       # What write queue length does an incoming req see
system.mem_ctrls.wrQLenPdf::12                      0                       # What write queue length does an incoming req see
system.mem_ctrls.wrQLenPdf::13                      0                       # What write queue length does an incoming req see
system.mem_ctrls.wrQLenPdf::14                      0                       # What write queue length does an incoming req see
system.mem_ctrls.wrQLenPdf::15                      0                       # What write queue length does an incoming req see
system.mem_ctrls.wrQLenPdf::16                      0                       # What write queue length does an incoming req see
system.mem_ctrls.wrQLenPdf::17                      0                       # What write queue length does an incoming req see
system.mem_ctrls.wrQLenPdf::18                      0                       # What write queue length does an incoming req see
system.mem_ctrls.wrQLenPdf::19                      0                       # What write queue length does an incoming req see
system.mem_ctrls.wrQLenPdf::20                      0                       # What write queue length does an incoming req see
system.mem_ctrls.wrQLenPdf::21                      0                       # What write queue length does an incoming req see
system.mem_ctrls.wrQLenPdf::22                      0                       # What write queue length does an incoming req see
system.mem_ctrls.wrQLenPdf::23                      0                       # What write queue length does an incoming req see
system.mem_ctrls.wrQLenPdf::24                      0                       # What write queue length does an incoming req see
system.mem_ctrls.wrQLenPdf::25                      0                       # What write queue length does an incoming req see
system.mem_ctrls.wrQLenPdf::26                      0                       # What write queue length does an incoming req see
system.mem_ctrls.wrQLenPdf::27                      0                       # What write queue length does an incoming req see
system.mem_ctrls.wrQLenPdf::28                      0                       # What write queue length does an incoming req see
system.mem_ctrls.wrQLenPdf::29                      0                       # What write queue length does an incoming req see
system.mem_ctrls.wrQLenPdf::30                      0                       # What write queue length does an incoming req see
system.mem_ctrls.wrQLenPdf::31                      0                       # What write queue length does an incoming req see
system.mem_ctrls.wrQLenPdf::32                      0                       # What write queue length does an incoming req see
system.mem_ctrls.wrQLenPdf::33                      0                       # What write queue length does an incoming req see
system.mem_ctrls.wrQLenPdf::34                      0                       # What write queue length does an incoming req see
system.mem_ctrls.wrQLenPdf::35                      0                       # What write queue length does an incoming req see
system.mem_ctrls.wrQLenPdf::36                      0                       # What write queue length does an incoming req see
system.mem_ctrls.wrQLenPdf::37                      0                       # What write queue length does an incoming req see
system.mem_ctrls.wrQLenPdf::38                      0                       # What write queue length does an incoming req see
system.mem_ctrls.wrQLenPdf::39                      0                       # What write queue length does an incoming req see
system.mem_ctrls.wrQLenPdf::40                      0                       # What write queue length does an incoming req see
system.mem_ctrls.wrQLenPdf::41                      0                       # What write queue length does an incoming req see
system.mem_ctrls.wrQLenPdf::42                      0                       # What write queue length does an incoming req see
system.mem_ctrls.wrQLenPdf::43                      0                       # What write queue length does an incoming req see
system.mem_ctrls.wrQLenPdf::44                      0                       # What write queue length does an incoming req see
system.mem_ctrls.wrQLenPdf::45                      0                       # What write queue length does an incoming req see
system.mem_ctrls.wrQLenPdf::46                      0                       # What write queue length does an incoming req see
system.mem_ctrls.wrQLenPdf::47                      0                       # What write queue length does an incoming req see
system.mem_ctrls.wrQLenPdf::48                      0                       # What write queue length does an incoming req see
system.mem_ctrls.wrQLenPdf::49                      0                       # What write queue length does an incoming req see
system.mem_ctrls.wrQLenPdf::50                      0                       # What write queue length does an incoming req see
system.mem_ctrls.wrQLenPdf::51                      0                       # What write queue length does an incoming req see
system.mem_ctrls.wrQLenPdf::52                      0                       # What write queue length does an incoming req see
system.mem_ctrls.wrQLenPdf::53                      0                       # What write queue length does an incoming req see
system.mem_ctrls.wrQLenPdf::54                      0                       # What write queue length does an incoming req see
system.mem_ctrls.wrQLenPdf::55                      0                       # What write queue length does an incoming req see
system.mem_ctrls.wrQLenPdf::56                      0                       # What write queue length does an incoming req see
system.mem_ctrls.wrQLenPdf::57                      0                       # What write queue length does an incoming req see
system.mem_ctrls.wrQLenPdf::58                      0                       # What write queue length does an incoming req see
system.mem_ctrls.wrQLenPdf::59                      0                       # What write queue length does an incoming req see
system.mem_ctrls.wrQLenPdf::60                      0                       # What write queue length does an incoming req see
system.mem_ctrls.wrQLenPdf::61                      0                       # What write queue length does an incoming req see
system.mem_ctrls.wrQLenPdf::62                      0                       # What write queue length does an incoming req see
system.mem_ctrls.wrQLenPdf::63                      0                       # What write queue length does an incoming req see
system.mem_ctrls.totQLat                            0                       # Total ticks spent queuing
system.mem_ctrls.totMemAccLat                       0                       # Total ticks spent from burst creation until serviced by the DRAM
system.mem_ctrls.totBusLat                          0                       # Total ticks spent in databus transfers
system.mem_ctrls.avgQLat                          nan                       # Average queueing delay per DRAM burst
system.mem_ctrls.avgBusLat                        nan                       # Average bus latency per DRAM burst
system.mem_ctrls.avgMemAccLat                     nan                       # Average memory access latency per DRAM burst
system.mem_ctrls.avgRdBW                         0.00                       # Average DRAM read bandwidth in MiByte/s
system.mem_ctrls.avgWrBW                         0.00                       # Average achieved write bandwidth in MiByte/s
system.mem_ctrls.avgRdBWSys                      0.00                       # Average system read bandwidth in MiByte/s
system.mem_ctrls.avgWrBWSys                      0.00                       # Average system write bandwidth in MiByte/s
system.mem_ctrls.peakBW                      12800.00                       # Theoretical peak bandwidth in MiByte/s
system.mem_ctrls.busUtil                         0.00                       # Data bus utilization in percentage
system.mem_ctrls.busUtilRead                     0.00                       # Data bus utilization in percentage for reads
system.mem_ctrls.busUtilWrite                    0.00                       # Data bus utilization in percentage for writes
system.mem_ctrls.avgRdQLen                       0.00                       # Average read queue length when enqueuing
system.mem_ctrls.avgWrQLen                       0.00                       # Average write queue length when enqueuing
system.mem_ctrls.readRowHits                        0                       # Number of row buffer hits during reads
system.mem_ctrls.writeRowHits                       0                       # Number of row buffer hits during writes
system.mem_ctrls.readRowHitRate                   nan                       # Row buffer hit rate for reads
system.mem_ctrls.writeRowHitRate                  nan                       # Row buffer hit rate for writes
system.mem_ctrls.avgGap                           nan                       # Average gap between requests
system.mem_ctrls.pageHitRate                      nan                       # Row buffer hit rate, read and write combined
system.mem_ctrls.memoryStateTime::IDLE   2754923862500                       # Time in different power states
system.mem_ctrls.memoryStateTime::REF     95170920000                       # Time in different power states
system.mem_ctrls.memoryStateTime::PRE_PDN            0                       # Time in different power states
system.mem_ctrls.memoryStateTime::ACT               0                       # Time in different power states
system.mem_ctrls.memoryStateTime::ACT_PDN            0                       # Time in different power states
system.mem_ctrls.actEnergy::0                       0                       # Energy for activate commands per rank (pJ)
system.mem_ctrls.actEnergy::1                       0                       # Energy for activate commands per rank (pJ)
system.mem_ctrls.preEnergy::0                       0                       # Energy for precharge commands per rank (pJ)
system.mem_ctrls.preEnergy::1                       0                       # Energy for precharge commands per rank (pJ)
system.mem_ctrls.readEnergy::0                      0                       # Energy for read commands per rank (pJ)
system.mem_ctrls.readEnergy::1                      0                       # Energy for read commands per rank (pJ)
system.mem_ctrls.writeEnergy::0                     0                       # Energy for write commands per rank (pJ)
system.mem_ctrls.writeEnergy::1                     0                       # Energy for write commands per rank (pJ)
system.mem_ctrls.refreshEnergy::0        186154319520                       # Energy for refresh commands per rank (pJ)
system.mem_ctrls.refreshEnergy::1        186154319520                       # Energy for refresh commands per rank (pJ)
system.mem_ctrls.actBackEnergy::0         61654284270                       # Energy for active background per rank (pJ)
system.mem_ctrls.actBackEnergy::1         61654284270                       # Energy for active background per rank (pJ)
system.mem_ctrls.preBackEnergy::0        1655974155750                       # Energy for precharge background per rank (pJ)
system.mem_ctrls.preBackEnergy::1        1655974155750                       # Energy for precharge background per rank (pJ)
system.mem_ctrls.totalEnergy::0          1903782759540                       # Total energy per rank (pJ)
system.mem_ctrls.totalEnergy::1          1903782759540                       # Total energy per rank (pJ)
system.mem_ctrls.averagePower::0           667.971739                       # Core power per rank (mW)
system.mem_ctrls.averagePower::1           667.971739                       # Core power per rank (mW)
system.membus.trans_dist::ReadReq          1010203234                       # Transaction distribution
system.membus.trans_dist::ReadResp         1013184232                       # Transaction distribution
system.membus.trans_dist::WriteReq          136533261                       # Transaction distribution
system.membus.trans_dist::WriteResp         136533261                       # Transaction distribution
system.membus.trans_dist::SoftPFReq           1417032                       # Transaction distribution
system.membus.trans_dist::SoftPFResp          1417032                       # Transaction distribution
system.membus.trans_dist::LoadLockedReq       2980998                       # Transaction distribution
system.membus.trans_dist::StoreCondReq        2977517                       # Transaction distribution
system.membus.trans_dist::StoreCondResp       2977517                       # Transaction distribution
system.membus.pkt_count_system.iobridge.master::system.mem_ctrls.port       357710                       # Packet count per connected master and slave (bytes)
system.membus.pkt_count_system.iobridge.master::total       357710                       # Packet count per connected master and slave (bytes)
system.membus.pkt_count_system.cpu0.icache_port::system.realview.nvmem.port           10                       # Packet count per connected master and slave (bytes)
system.membus.pkt_count_system.cpu0.icache_port::system.mem_ctrls.port    464782106                       # Packet count per connected master and slave (bytes)
system.membus.pkt_count_system.cpu0.icache_port::total    464782116                       # Packet count per connected master and slave (bytes)
system.membus.pkt_count_system.cpu0.dcache_port::system.bridge.slave       726034                       # Packet count per connected master and slave (bytes)
system.membus.pkt_count_system.cpu0.dcache_port::system.realview.gic.pio        19508                       # Packet count per connected master and slave (bytes)
system.membus.pkt_count_system.cpu0.dcache_port::system.mem_ctrls.port    205273130                       # Packet count per connected master and slave (bytes)
system.membus.pkt_count_system.cpu0.dcache_port::total    206018672                       # Packet count per connected master and slave (bytes)
system.membus.pkt_count_system.cpu0.itb.walker.dma::system.mem_ctrls.port       185926                       # Packet count per connected master and slave (bytes)
system.membus.pkt_count_system.cpu0.itb.walker.dma::total       185926                       # Packet count per connected master and slave (bytes)
system.membus.pkt_count_system.cpu0.dtb.walker.dma::system.mem_ctrls.port       558906                       # Packet count per connected master and slave (bytes)
system.membus.pkt_count_system.cpu0.dtb.walker.dma::total       558906                       # Packet count per connected master and slave (bytes)
system.membus.pkt_count_system.cpu1.icache_port::system.realview.nvmem.port           24                       # Packet count per connected master and slave (bytes)
system.membus.pkt_count_system.cpu1.icache_port::system.mem_ctrls.port    484158608                       # Packet count per connected master and slave (bytes)
system.membus.pkt_count_system.cpu1.icache_port::total    484158632                       # Packet count per connected master and slave (bytes)
system.membus.pkt_count_system.cpu1.dcache_port::system.bridge.slave       331006                       # Packet count per connected master and slave (bytes)
system.membus.pkt_count_system.cpu1.dcache_port::system.realview.gic.pio        10506                       # Packet count per connected master and slave (bytes)
system.membus.pkt_count_system.cpu1.dcache_port::system.mem_ctrls.port    150680436                       # Packet count per connected master and slave (bytes)
system.membus.pkt_count_system.cpu1.dcache_port::total    151021948                       # Packet count per connected master and slave (bytes)
system.membus.pkt_count_system.cpu1.itb.walker.dma::system.mem_ctrls.port        76800                       # Packet count per connected master and slave (bytes)
system.membus.pkt_count_system.cpu1.itb.walker.dma::total        76800                       # Packet count per connected master and slave (bytes)
system.membus.pkt_count_system.cpu1.dtb.walker.dma::system.mem_ctrls.port       197682                       # Packet count per connected master and slave (bytes)
system.membus.pkt_count_system.cpu1.dtb.walker.dma::total       197682                       # Packet count per connected master and slave (bytes)
system.membus.pkt_count_system.cpu2.icache_port::system.realview.nvmem.port           24                       # Packet count per connected master and slave (bytes)
system.membus.pkt_count_system.cpu2.icache_port::system.mem_ctrls.port    372615900                       # Packet count per connected master and slave (bytes)
system.membus.pkt_count_system.cpu2.icache_port::total    372615924                       # Packet count per connected master and slave (bytes)
system.membus.pkt_count_system.cpu2.dcache_port::system.bridge.slave        30154                       # Packet count per connected master and slave (bytes)
system.membus.pkt_count_system.cpu2.dcache_port::system.realview.gic.pio        11902                       # Packet count per connected master and slave (bytes)
system.membus.pkt_count_system.cpu2.dcache_port::system.mem_ctrls.port    158980676                       # Packet count per connected master and slave (bytes)
system.membus.pkt_count_system.cpu2.dcache_port::total    159022732                       # Packet count per connected master and slave (bytes)
system.membus.pkt_count_system.cpu2.itb.walker.dma::system.mem_ctrls.port       167026                       # Packet count per connected master and slave (bytes)
system.membus.pkt_count_system.cpu2.itb.walker.dma::total       167026                       # Packet count per connected master and slave (bytes)
system.membus.pkt_count_system.cpu2.dtb.walker.dma::system.mem_ctrls.port       355544                       # Packet count per connected master and slave (bytes)
system.membus.pkt_count_system.cpu2.dtb.walker.dma::total       355544                       # Packet count per connected master and slave (bytes)
system.membus.pkt_count_system.cpu3.icache_port::system.realview.nvmem.port           24                       # Packet count per connected master and slave (bytes)
system.membus.pkt_count_system.cpu3.icache_port::system.mem_ctrls.port    325996820                       # Packet count per connected master and slave (bytes)
system.membus.pkt_count_system.cpu3.icache_port::total    325996844                       # Packet count per connected master and slave (bytes)
system.membus.pkt_count_system.cpu3.dcache_port::system.bridge.slave       329470                       # Packet count per connected master and slave (bytes)
system.membus.pkt_count_system.cpu3.dcache_port::system.realview.gic.pio         8426                       # Packet count per connected master and slave (bytes)
system.membus.pkt_count_system.cpu3.dcache_port::system.mem_ctrls.port    141929418                       # Packet count per connected master and slave (bytes)
system.membus.pkt_count_system.cpu3.dcache_port::total    142267314                       # Packet count per connected master and slave (bytes)
system.membus.pkt_count_system.cpu3.itb.walker.dma::system.mem_ctrls.port       132848                       # Packet count per connected master and slave (bytes)
system.membus.pkt_count_system.cpu3.itb.walker.dma::total       132848                       # Packet count per connected master and slave (bytes)
system.membus.pkt_count_system.cpu3.dtb.walker.dma::system.mem_ctrls.port       307460                       # Packet count per connected master and slave (bytes)
system.membus.pkt_count_system.cpu3.dtb.walker.dma::total       307460                       # Packet count per connected master and slave (bytes)
system.membus.pkt_count::total             2308224084                       # Packet count per connected master and slave (bytes)
system.membus.pkt_size_system.iobridge.master::system.mem_ctrls.port     11311032                       # Cumulative packet size per connected master and slave (bytes)
system.membus.pkt_size_system.iobridge.master::total     11311032                       # Cumulative packet size per connected master and slave (bytes)
system.membus.pkt_size_system.cpu0.icache_port::system.realview.nvmem.port           20                       # Cumulative packet size per connected master and slave (bytes)
system.membus.pkt_size_system.cpu0.icache_port::system.mem_ctrls.port    929564212                       # Cumulative packet size per connected master and slave (bytes)
system.membus.pkt_size_system.cpu0.icache_port::total    929564232                       # Cumulative packet size per connected master and slave (bytes)
system.membus.pkt_size_system.cpu0.dcache_port::system.bridge.slave      1377673                       # Cumulative packet size per connected master and slave (bytes)
system.membus.pkt_size_system.cpu0.dcache_port::system.realview.gic.pio        39016                       # Cumulative packet size per connected master and slave (bytes)
system.membus.pkt_size_system.cpu0.dcache_port::system.mem_ctrls.port    433506483                       # Cumulative packet size per connected master and slave (bytes)
system.membus.pkt_size_system.cpu0.dcache_port::total    434923172                       # Cumulative packet size per connected master and slave (bytes)
system.membus.pkt_size_system.cpu0.itb.walker.dma::system.mem_ctrls.port       371852                       # Cumulative packet size per connected master and slave (bytes)
system.membus.pkt_size_system.cpu0.itb.walker.dma::total       371852                       # Cumulative packet size per connected master and slave (bytes)
system.membus.pkt_size_system.cpu0.dtb.walker.dma::system.mem_ctrls.port      1117812                       # Cumulative packet size per connected master and slave (bytes)
system.membus.pkt_size_system.cpu0.dtb.walker.dma::total      1117812                       # Cumulative packet size per connected master and slave (bytes)
system.membus.pkt_size_system.cpu1.icache_port::system.realview.nvmem.port           48                       # Cumulative packet size per connected master and slave (bytes)
system.membus.pkt_size_system.cpu1.icache_port::system.mem_ctrls.port    968317216                       # Cumulative packet size per connected master and slave (bytes)
system.membus.pkt_size_system.cpu1.icache_port::total    968317264                       # Cumulative packet size per connected master and slave (bytes)
system.membus.pkt_size_system.cpu1.dcache_port::system.bridge.slave       648016                       # Cumulative packet size per connected master and slave (bytes)
system.membus.pkt_size_system.cpu1.dcache_port::system.realview.gic.pio        21012                       # Cumulative packet size per connected master and slave (bytes)
system.membus.pkt_size_system.cpu1.dcache_port::system.mem_ctrls.port    266411288                       # Cumulative packet size per connected master and slave (bytes)
system.membus.pkt_size_system.cpu1.dcache_port::total    267080316                       # Cumulative packet size per connected master and slave (bytes)
system.membus.pkt_size_system.cpu1.itb.walker.dma::system.mem_ctrls.port       153600                       # Cumulative packet size per connected master and slave (bytes)
system.membus.pkt_size_system.cpu1.itb.walker.dma::total       153600                       # Cumulative packet size per connected master and slave (bytes)
system.membus.pkt_size_system.cpu1.dtb.walker.dma::system.mem_ctrls.port       395364                       # Cumulative packet size per connected master and slave (bytes)
system.membus.pkt_size_system.cpu1.dtb.walker.dma::total       395364                       # Cumulative packet size per connected master and slave (bytes)
system.membus.pkt_size_system.cpu2.icache_port::system.realview.nvmem.port           48                       # Cumulative packet size per connected master and slave (bytes)
system.membus.pkt_size_system.cpu2.icache_port::system.mem_ctrls.port    745231800                       # Cumulative packet size per connected master and slave (bytes)
system.membus.pkt_size_system.cpu2.icache_port::total    745231848                       # Cumulative packet size per connected master and slave (bytes)
system.membus.pkt_size_system.cpu2.dcache_port::system.bridge.slave        41849                       # Cumulative packet size per connected master and slave (bytes)
system.membus.pkt_size_system.cpu2.dcache_port::system.realview.gic.pio        23804                       # Cumulative packet size per connected master and slave (bytes)
system.membus.pkt_size_system.cpu2.dcache_port::system.mem_ctrls.port    323790267                       # Cumulative packet size per connected master and slave (bytes)
system.membus.pkt_size_system.cpu2.dcache_port::total    323855920                       # Cumulative packet size per connected master and slave (bytes)
system.membus.pkt_size_system.cpu2.itb.walker.dma::system.mem_ctrls.port       334052                       # Cumulative packet size per connected master and slave (bytes)
system.membus.pkt_size_system.cpu2.itb.walker.dma::total       334052                       # Cumulative packet size per connected master and slave (bytes)
system.membus.pkt_size_system.cpu2.dtb.walker.dma::system.mem_ctrls.port       711088                       # Cumulative packet size per connected master and slave (bytes)
system.membus.pkt_size_system.cpu2.dtb.walker.dma::total       711088                       # Cumulative packet size per connected master and slave (bytes)
system.membus.pkt_size_system.cpu3.icache_port::system.realview.nvmem.port           48                       # Cumulative packet size per connected master and slave (bytes)
system.membus.pkt_size_system.cpu3.icache_port::system.mem_ctrls.port    651993640                       # Cumulative packet size per connected master and slave (bytes)
system.membus.pkt_size_system.cpu3.icache_port::total    651993688                       # Cumulative packet size per connected master and slave (bytes)
system.membus.pkt_size_system.cpu3.dcache_port::system.bridge.slave       649788                       # Cumulative packet size per connected master and slave (bytes)
system.membus.pkt_size_system.cpu3.dcache_port::system.realview.gic.pio        16852                       # Cumulative packet size per connected master and slave (bytes)
system.membus.pkt_size_system.cpu3.dcache_port::system.mem_ctrls.port    292477011                       # Cumulative packet size per connected master and slave (bytes)
system.membus.pkt_size_system.cpu3.dcache_port::total    293143651                       # Cumulative packet size per connected master and slave (bytes)
system.membus.pkt_size_system.cpu3.itb.walker.dma::system.mem_ctrls.port       265696                       # Cumulative packet size per connected master and slave (bytes)
system.membus.pkt_size_system.cpu3.itb.walker.dma::total       265696                       # Cumulative packet size per connected master and slave (bytes)
system.membus.pkt_size_system.cpu3.dtb.walker.dma::system.mem_ctrls.port       614920                       # Cumulative packet size per connected master and slave (bytes)
system.membus.pkt_size_system.cpu3.dtb.walker.dma::total       614920                       # Cumulative packet size per connected master and slave (bytes)
system.membus.pkt_size::total              4629385507                       # Cumulative packet size per connected master and slave (bytes)
system.membus.snoops                                0                       # Total snoops (count)
system.membus.snoop_fanout::samples        1153364084                       # Request fanout histogram
system.membus.snoop_fanout::mean            19.714386                       # Request fanout histogram
system.membus.snoop_fanout::stdev            0.451707                       # Request fanout histogram
system.membus.snoop_fanout::underflows              0      0.00%      0.00% # Request fanout histogram
system.membus.snoop_fanout::0                       0      0.00%      0.00% # Request fanout histogram
system.membus.snoop_fanout::1                       0      0.00%      0.00% # Request fanout histogram
system.membus.snoop_fanout::2                       0      0.00%      0.00% # Request fanout histogram
system.membus.snoop_fanout::3                       0      0.00%      0.00% # Request fanout histogram
system.membus.snoop_fanout::4                       0      0.00%      0.00% # Request fanout histogram
system.membus.snoop_fanout::5                       0      0.00%      0.00% # Request fanout histogram
system.membus.snoop_fanout::6                       0      0.00%      0.00% # Request fanout histogram
system.membus.snoop_fanout::7                       0      0.00%      0.00% # Request fanout histogram
system.membus.snoop_fanout::8                       0      0.00%      0.00% # Request fanout histogram
system.membus.snoop_fanout::9                       0      0.00%      0.00% # Request fanout histogram
system.membus.snoop_fanout::10                      0      0.00%      0.00% # Request fanout histogram
system.membus.snoop_fanout::11                      0      0.00%      0.00% # Request fanout histogram
system.membus.snoop_fanout::12                      0      0.00%      0.00% # Request fanout histogram
system.membus.snoop_fanout::13                      0      0.00%      0.00% # Request fanout histogram
system.membus.snoop_fanout::14                      0      0.00%      0.00% # Request fanout histogram
system.membus.snoop_fanout::15                      0      0.00%      0.00% # Request fanout histogram
system.membus.snoop_fanout::16                      0      0.00%      0.00% # Request fanout histogram
system.membus.snoop_fanout::17                      0      0.00%      0.00% # Request fanout histogram
system.membus.snoop_fanout::18                      0      0.00%      0.00% # Request fanout histogram
system.membus.snoop_fanout::19              329417501     28.56%     28.56% # Request fanout histogram
system.membus.snoop_fanout::20              823946583     71.44%    100.00% # Request fanout histogram
system.membus.snoop_fanout::overflows               0      0.00%    100.00% # Request fanout histogram
system.membus.snoop_fanout::min_value              19                       # Request fanout histogram
system.membus.snoop_fanout::max_value              20                       # Request fanout histogram
system.membus.snoop_fanout::total          1153364084                       # Request fanout histogram
system.realview.ethernet.descDMAReads               0                       # Number of descriptors the device read w/ DMA
system.realview.ethernet.descDMAWrites              0                       # Number of descriptors the device wrote w/ DMA
system.realview.ethernet.descDmaReadBytes            0                       # number of descriptor bytes read w/ DMA
system.realview.ethernet.descDmaWriteBytes            0                       # number of descriptor bytes write w/ DMA
system.realview.ethernet.postedSwi                  0                       # number of software interrupts posted to CPU
system.realview.ethernet.coalescedSwi             nan                       # average number of Swi's coalesced into each post
system.realview.ethernet.totalSwi                   0                       # total number of Swi written to ISR
system.realview.ethernet.postedRxIdle               0                       # number of rxIdle interrupts posted to CPU
system.realview.ethernet.coalescedRxIdle          nan                       # average number of RxIdle's coalesced into each post
system.realview.ethernet.totalRxIdle                0                       # total number of RxIdle written to ISR
system.realview.ethernet.postedRxOk                 0                       # number of RxOk interrupts posted to CPU
system.realview.ethernet.coalescedRxOk            nan                       # average number of RxOk's coalesced into each post
system.realview.ethernet.totalRxOk                  0                       # total number of RxOk written to ISR
system.realview.ethernet.postedRxDesc               0                       # number of RxDesc interrupts posted to CPU
system.realview.ethernet.coalescedRxDesc          nan                       # average number of RxDesc's coalesced into each post
system.realview.ethernet.totalRxDesc                0                       # total number of RxDesc written to ISR
system.realview.ethernet.postedTxOk                 0                       # number of TxOk interrupts posted to CPU
system.realview.ethernet.coalescedTxOk            nan                       # average number of TxOk's coalesced into each post
system.realview.ethernet.totalTxOk                  0                       # total number of TxOk written to ISR
system.realview.ethernet.postedTxIdle               0                       # number of TxIdle interrupts posted to CPU
system.realview.ethernet.coalescedTxIdle          nan                       # average number of TxIdle's coalesced into each post
system.realview.ethernet.totalTxIdle                0                       # total number of TxIdle written to ISR
system.realview.ethernet.postedTxDesc               0                       # number of TxDesc interrupts posted to CPU
system.realview.ethernet.coalescedTxDesc          nan                       # average number of TxDesc's coalesced into each post
system.realview.ethernet.totalTxDesc                0                       # total number of TxDesc written to ISR
system.realview.ethernet.postedRxOrn                0                       # number of RxOrn posted to CPU
system.realview.ethernet.coalescedRxOrn           nan                       # average number of RxOrn's coalesced into each post
system.realview.ethernet.totalRxOrn                 0                       # total number of RxOrn written to ISR
system.realview.ethernet.coalescedTotal           nan                       # average number of interrupts coalesced into each post
system.realview.ethernet.postedInterrupts            0                       # number of posts to CPU
system.realview.ethernet.droppedPackets             0                       # number of packets dropped
system.cf0.dma_read_full_pages                      7                       # Number of full page size DMA reads (not PRD).
system.cf0.dma_read_bytes                      361472                       # Number of bytes transfered via DMA reads (not PRD).
system.cf0.dma_read_txs                           313                       # Number of DMA read transactions (not PRD).
system.cf0.dma_write_full_pages                  2444                       # Number of full page size DMA writes.
system.cf0.dma_write_bytes                   10930176                       # Number of bytes transfered via DMA writes.
system.cf0.dma_write_txs                         3183                       # Number of DMA write transactions.
system.cpu_voltage_domain.voltage                   1                       # Voltage in Volts
system.iobus.trans_dist::ReadReq             16975480                       # Transaction distribution
system.iobus.trans_dist::ReadResp            16975480                       # Transaction distribution
system.iobus.trans_dist::WriteReq              807707                       # Transaction distribution
system.iobus.trans_dist::WriteResp             807707                       # Transaction distribution
system.iobus.pkt_count_system.bridge.master::system.realview.uart.pio        47070                       # Packet count per connected master and slave (bytes)
system.iobus.pkt_count_system.bridge.master::system.realview.realview_io.pio        38018                       # Packet count per connected master and slave (bytes)
system.iobus.pkt_count_system.bridge.master::system.realview.timer0.pio        26892                       # Packet count per connected master and slave (bytes)
system.iobus.pkt_count_system.bridge.master::system.realview.clcd.pio           36                       # Packet count per connected master and slave (bytes)
system.iobus.pkt_count_system.bridge.master::system.realview.kmi0.pio          120                       # Packet count per connected master and slave (bytes)
system.iobus.pkt_count_system.bridge.master::system.realview.kmi1.pio          732                       # Packet count per connected master and slave (bytes)
system.iobus.pkt_count_system.bridge.master::system.realview.cf_ctrl.pio          112                       # Packet count per connected master and slave (bytes)
system.iobus.pkt_count_system.bridge.master::system.realview.rtc.pio           26                       # Packet count per connected master and slave (bytes)
system.iobus.pkt_count_system.bridge.master::system.realview.vram.port      1206656                       # Packet count per connected master and slave (bytes)
system.iobus.pkt_count_system.bridge.master::system.realview.uart1_fake.pio           16                       # Packet count per connected master and slave (bytes)
system.iobus.pkt_count_system.bridge.master::system.realview.uart2_fake.pio           16                       # Packet count per connected master and slave (bytes)
system.iobus.pkt_count_system.bridge.master::system.realview.uart3_fake.pio           16                       # Packet count per connected master and slave (bytes)
system.iobus.pkt_count_system.bridge.master::system.realview.sp810_fake.pio            4                       # Packet count per connected master and slave (bytes)
system.iobus.pkt_count_system.bridge.master::system.realview.watchdog_fake.pio           16                       # Packet count per connected master and slave (bytes)
system.iobus.pkt_count_system.bridge.master::system.realview.aaci_fake.pio           16                       # Packet count per connected master and slave (bytes)
system.iobus.pkt_count_system.bridge.master::system.realview.lan_fake.pio            2                       # Packet count per connected master and slave (bytes)
system.iobus.pkt_count_system.bridge.master::system.realview.usb_fake.pio           10                       # Packet count per connected master and slave (bytes)
system.iobus.pkt_count_system.bridge.master::system.realview.mmc_fake.pio           16                       # Packet count per connected master and slave (bytes)
system.iobus.pkt_count_system.bridge.master::system.realview.ide.pio        54144                       # Packet count per connected master and slave (bytes)
system.iobus.pkt_count_system.bridge.master::system.realview.ide-pciconf          234                       # Packet count per connected master and slave (bytes)
system.iobus.pkt_count_system.bridge.master::system.realview.ethernet.pio        42264                       # Packet count per connected master and slave (bytes)
system.iobus.pkt_count_system.bridge.master::system.realview.ethernet-pciconf          188                       # Packet count per connected master and slave (bytes)
system.iobus.pkt_count_system.bridge.master::system.realview.pciconfig.pio           60                       # Packet count per connected master and slave (bytes)
system.iobus.pkt_count_system.bridge.master::total      1416664                       # Packet count per connected master and slave (bytes)
system.iobus.pkt_count_system.realview.clcd.dma::system.realview.vram.port     33792000                       # Packet count per connected master and slave (bytes)
system.iobus.pkt_count_system.realview.clcd.dma::total     33792000                       # Packet count per connected master and slave (bytes)
system.iobus.pkt_count_system.realview.ide.dma::system.iobridge.slave       357710                       # Packet count per connected master and slave (bytes)
system.iobus.pkt_count_system.realview.ide.dma::total       357710                       # Packet count per connected master and slave (bytes)
system.iobus.pkt_count::total                35566374                       # Packet count per connected master and slave (bytes)
system.iobus.pkt_size_system.bridge.master::system.realview.uart.pio        56827                       # Cumulative packet size per connected master and slave (bytes)
system.iobus.pkt_size_system.bridge.master::system.realview.realview_io.pio        76036                       # Cumulative packet size per connected master and slave (bytes)
system.iobus.pkt_size_system.bridge.master::system.realview.timer0.pio        53784                       # Cumulative packet size per connected master and slave (bytes)
system.iobus.pkt_size_system.bridge.master::system.realview.clcd.pio           72                       # Cumulative packet size per connected master and slave (bytes)
system.iobus.pkt_size_system.bridge.master::system.realview.kmi0.pio           84                       # Cumulative packet size per connected master and slave (bytes)
system.iobus.pkt_size_system.bridge.master::system.realview.kmi1.pio          390                       # Cumulative packet size per connected master and slave (bytes)
system.iobus.pkt_size_system.bridge.master::system.realview.cf_ctrl.pio           56                       # Cumulative packet size per connected master and slave (bytes)
system.iobus.pkt_size_system.bridge.master::system.realview.rtc.pio           52                       # Cumulative packet size per connected master and slave (bytes)
system.iobus.pkt_size_system.bridge.master::system.realview.vram.port      2413312                       # Cumulative packet size per connected master and slave (bytes)
system.iobus.pkt_size_system.bridge.master::system.realview.uart1_fake.pio           32                       # Cumulative packet size per connected master and slave (bytes)
system.iobus.pkt_size_system.bridge.master::system.realview.uart2_fake.pio           32                       # Cumulative packet size per connected master and slave (bytes)
system.iobus.pkt_size_system.bridge.master::system.realview.uart3_fake.pio           32                       # Cumulative packet size per connected master and slave (bytes)
system.iobus.pkt_size_system.bridge.master::system.realview.sp810_fake.pio            8                       # Cumulative packet size per connected master and slave (bytes)
system.iobus.pkt_size_system.bridge.master::system.realview.watchdog_fake.pio           32                       # Cumulative packet size per connected master and slave (bytes)
system.iobus.pkt_size_system.bridge.master::system.realview.aaci_fake.pio           32                       # Cumulative packet size per connected master and slave (bytes)
system.iobus.pkt_size_system.bridge.master::system.realview.lan_fake.pio            4                       # Cumulative packet size per connected master and slave (bytes)
system.iobus.pkt_size_system.bridge.master::system.realview.usb_fake.pio           20                       # Cumulative packet size per connected master and slave (bytes)
system.iobus.pkt_size_system.bridge.master::system.realview.mmc_fake.pio           32                       # Cumulative packet size per connected master and slave (bytes)
system.iobus.pkt_size_system.bridge.master::system.realview.ide.pio        31275                       # Cumulative packet size per connected master and slave (bytes)
system.iobus.pkt_size_system.bridge.master::system.realview.ide-pciconf          289                       # Cumulative packet size per connected master and slave (bytes)
system.iobus.pkt_size_system.bridge.master::system.realview.ethernet.pio        84528                       # Cumulative packet size per connected master and slave (bytes)
system.iobus.pkt_size_system.bridge.master::system.realview.ethernet-pciconf          277                       # Cumulative packet size per connected master and slave (bytes)
system.iobus.pkt_size_system.bridge.master::system.realview.pciconfig.pio          120                       # Cumulative packet size per connected master and slave (bytes)
system.iobus.pkt_size_system.bridge.master::total      2717326                       # Cumulative packet size per connected master and slave (bytes)
system.iobus.pkt_size_system.realview.clcd.dma::system.realview.vram.port    135168000                       # Cumulative packet size per connected master and slave (bytes)
system.iobus.pkt_size_system.realview.clcd.dma::total    135168000                       # Cumulative packet size per connected master and slave (bytes)
system.iobus.pkt_size_system.realview.ide.dma::system.iobridge.slave     11311032                       # Cumulative packet size per connected master and slave (bytes)
system.iobus.pkt_size_system.realview.ide.dma::total     11311032                       # Cumulative packet size per connected master and slave (bytes)
system.iobus.pkt_size::total                149196358                       # Cumulative packet size per connected master and slave (bytes)
system.cpu_clk_domain.clock                       500                       # Clock period in ticks
system.cpu0.dstage2_mmu.stage2_tlb.inst_hits            0                       # ITB inst hits
system.cpu0.dstage2_mmu.stage2_tlb.inst_misses            0                       # ITB inst misses
system.cpu0.dstage2_mmu.stage2_tlb.read_hits            0                       # DTB read hits
system.cpu0.dstage2_mmu.stage2_tlb.read_misses            0                       # DTB read misses
system.cpu0.dstage2_mmu.stage2_tlb.write_hits            0                       # DTB write hits
system.cpu0.dstage2_mmu.stage2_tlb.write_misses            0                       # DTB write misses
system.cpu0.dstage2_mmu.stage2_tlb.flush_tlb            0                       # Number of times complete TLB was flushed
system.cpu0.dstage2_mmu.stage2_tlb.flush_tlb_mva            0                       # Number of times TLB was flushed by MVA
system.cpu0.dstage2_mmu.stage2_tlb.flush_tlb_mva_asid            0                       # Number of times TLB was flushed by MVA & ASID
system.cpu0.dstage2_mmu.stage2_tlb.flush_tlb_asid            0                       # Number of times TLB was flushed by ASID
system.cpu0.dstage2_mmu.stage2_tlb.flush_entries            0                       # Number of entries that have been flushed from TLB
system.cpu0.dstage2_mmu.stage2_tlb.align_faults            0                       # Number of TLB faults due to alignment restrictions
system.cpu0.dstage2_mmu.stage2_tlb.prefetch_faults            0                       # Number of TLB faults due to prefetch
system.cpu0.dstage2_mmu.stage2_tlb.domain_faults            0                       # Number of TLB faults due to domain restrictions
[...]
system.cpu2.op_class::IntAlu                186071711     95.28%     95.28% # Class of executed instruction
system.cpu2.op_class::IntMult                 1480072      0.76%     96.04% # Class of executed instruction
system.cpu2.op_class::IntDiv                        0      0.00%     96.04% # Class of executed instruction
system.cpu2.op_class::FloatAdd                      0      0.00%     96.04% # Class of executed instruction
system.cpu2.op_class::FloatCmp                      0      0.00%     96.04% # Class of executed instruction
system.cpu2.op_class::FloatCvt                      0      0.00%     96.04% # Class of executed instruction
system.cpu2.op_class::FloatMult                     0      0.00%     96.04% # Class of executed instruction
system.cpu2.op_class::FloatDiv                      0      0.00%     96.04% # Class of executed instruction
system.cpu2.op_class::FloatSqrt                     0      0.00%     96.04% # Class of executed instruction
system.cpu2.op_class::SimdAdd                       0      0.00%     96.04% # Class of executed instruction
system.cpu2.op_class::SimdAddAcc                    0      0.00%     96.04% # Class of executed instruction
system.cpu2.op_class::SimdAlu                       0      0.00%     96.04% # Class of executed instruction
system.cpu2.op_class::SimdCmp                       0      0.00%     96.04% # Class of executed instruction
system.cpu2.op_class::SimdCvt                       0      0.00%     96.04% # Class of executed instruction
system.cpu2.op_class::SimdMisc                      0      0.00%     96.04% # Class of executed instruction
system.cpu2.op_class::SimdMult                      0      0.00%     96.04% # Class of executed instruction
system.cpu2.op_class::SimdMultAcc                   0      0.00%     96.04% # Class of executed instruction
system.cpu2.op_class::SimdShift                     0      0.00%     96.04% # Class of executed instruction
system.cpu2.op_class::SimdShiftAcc                  0      0.00%     96.04% # Class of executed instruction
system.cpu2.op_class::SimdSqrt                      0      0.00%     96.04% # Class of executed instruction
system.cpu2.op_class::SimdFloatAdd                  0      0.00%     96.04% # Class of executed instruction
system.cpu2.op_class::SimdFloatAlu                  0      0.00%     96.04% # Class of executed instruction
system.cpu2.op_class::SimdFloatCmp                  0      0.00%     96.04% # Class of executed instruction
system.cpu2.op_class::SimdFloatCvt                  0      0.00%     96.04% # Class of executed instruction
system.cpu2.op_class::SimdFloatDiv                  0      0.00%     96.04% # Class of executed instruction
system.cpu2.op_class::SimdFloatMisc               447      0.00%     96.04% # Class of executed instruction
system.cpu2.op_class::SimdFloatMult                 0      0.00%     96.04% # Class of executed instruction
system.cpu2.op_class::SimdFloatMultAcc              0      0.00%     96.04% # Class of executed instruction
system.cpu2.op_class::SimdFloatSqrt                 0      0.00%     96.04% # Class of executed instruction
system.cpu2.op_class::MemRead                 5969213      3.06%     99.09% # Class of executed instruction
system.cpu2.op_class::MemWrite                1767446      0.91%    100.00% # Class of executed instruction
system.cpu2.op_class::IprAccess                     0      0.00%    100.00% # Class of executed instruction
system.cpu2.op_class::InstPrefetch                  0      0.00%    100.00% # Class of executed instruction
system.cpu2.op_class::total                 195297855                       # Class of executed instruction
system.cpu2.kern.inst.arm                           0                       # number of arm instructions executed
system.cpu2.kern.inst.quiesce                    5911                       # number of quiesce instructions executed
system.cpu3.dstage2_mmu.stage2_tlb.inst_hits            0                       # ITB inst hits
system.cpu3.dstage2_mmu.stage2_tlb.inst_misses            0                       # ITB inst misses
system.cpu3.dstage2_mmu.stage2_tlb.read_hits            0                       # DTB read hits
system.cpu3.dstage2_mmu.stage2_tlb.read_misses            0                       # DTB read misses
system.cpu3.dstage2_mmu.stage2_tlb.write_hits            0                       # DTB write hits
system.cpu3.dstage2_mmu.stage2_tlb.write_misses            0                       # DTB write misses
system.cpu3.dstage2_mmu.stage2_tlb.flush_tlb            0                       # Number of times complete TLB was flushed
system.cpu3.dstage2_mmu.stage2_tlb.flush_tlb_mva            0                       # Number of times TLB was flushed by MVA
system.cpu3.dstage2_mmu.stage2_tlb.flush_tlb_mva_asid            0                       # Number of times TLB was flushed by MVA & ASID
system.cpu3.dstage2_mmu.stage2_tlb.flush_tlb_asid            0                       # Number of times TLB was flushed by ASID
system.cpu3.dstage2_mmu.stage2_tlb.flush_entries            0                       # Number of entries that have been flushed from TLB
system.cpu3.dstage2_mmu.stage2_tlb.align_faults            0                       # Number of TLB faults due to alignment restrictions
system.cpu3.dstage2_mmu.stage2_tlb.prefetch_faults            0                       # Number of TLB faults due to prefetch
system.cpu3.dstage2_mmu.stage2_tlb.domain_faults            0                       # Number of TLB faults due to domain restrictions
system.cpu3.dstage2_mmu.stage2_tlb.perms_faults            0                       # Number of TLB faults due to permissions restrictions
system.cpu3.dstage2_mmu.stage2_tlb.read_accesses            0                       # DTB read accesses
system.cpu3.dstage2_mmu.stage2_tlb.write_accesses            0                       # DTB write accesses
system.cpu3.dstage2_mmu.stage2_tlb.inst_accesses            0                       # ITB inst accesses
system.cpu3.dstage2_mmu.stage2_tlb.hits             0                       # DTB hits
system.cpu3.dstage2_mmu.stage2_tlb.misses            0                       # DTB misses
system.cpu3.dstage2_mmu.stage2_tlb.accesses            0                       # DTB accesses
system.cpu3.dtb.inst_hits                           0                       # ITB inst hits
system.cpu3.dtb.inst_misses                         0                       # ITB inst misses
system.cpu3.dtb.read_hits                     5865746                       # DTB read hits
system.cpu3.dtb.read_misses                     29248                       # DTB read misses
system.cpu3.dtb.write_hits                    1497246                       # DTB write hits
system.cpu3.dtb.write_misses                      468                       # DTB write misses
system.cpu3.dtb.flush_tlb                           0                       # Number of times complete TLB was flushed
system.cpu3.dtb.flush_tlb_mva                       0                       # Number of times TLB was flushed by MVA
system.cpu3.dtb.flush_tlb_mva_asid               1424                       # Number of times TLB was flushed by MVA & ASID
system.cpu3.dtb.flush_tlb_asid                     76                       # Number of times TLB was flushed by ASID
system.cpu3.dtb.flush_entries                     714                       # Number of entries that have been flushed from TLB
system.cpu3.dtb.align_faults                        0                       # Number of TLB faults due to alignment restrictions
system.cpu3.dtb.prefetch_faults                  1957                       # Number of TLB faults due to prefetch
system.cpu3.dtb.domain_faults                       0                       # Number of TLB faults due to domain restrictions
system.cpu3.dtb.perms_faults                       80                       # Number of TLB faults due to permissions restrictions
system.cpu3.dtb.read_accesses                 5894994                       # DTB read accesses
system.cpu3.dtb.write_accesses                1497714                       # DTB write accesses
system.cpu3.dtb.inst_accesses                       0                       # ITB inst accesses
system.cpu3.dtb.hits                          7362992                       # DTB hits
system.cpu3.dtb.misses                          29716                       # DTB misses
system.cpu3.dtb.accesses                      7392708                       # DTB accesses
system.cpu3.istage2_mmu.stage2_tlb.inst_hits            0                       # ITB inst hits
system.cpu3.istage2_mmu.stage2_tlb.inst_misses            0                       # ITB inst misses
system.cpu3.istage2_mmu.stage2_tlb.read_hits            0                       # DTB read hits
system.cpu3.istage2_mmu.stage2_tlb.read_misses            0                       # DTB read misses
system.cpu3.istage2_mmu.stage2_tlb.write_hits            0                       # DTB write hits
system.cpu3.istage2_mmu.stage2_tlb.write_misses            0                       # DTB write misses
system.cpu3.istage2_mmu.stage2_tlb.flush_tlb            0                       # Number of times complete TLB was flushed
system.cpu3.istage2_mmu.stage2_tlb.flush_tlb_mva            0                       # Number of times TLB was flushed by MVA
system.cpu3.istage2_mmu.stage2_tlb.flush_tlb_mva_asid            0                       # Number of times TLB was flushed by MVA & ASID
system.cpu3.istage2_mmu.stage2_tlb.flush_tlb_asid            0                       # Number of times TLB was flushed by ASID
system.cpu3.istage2_mmu.stage2_tlb.flush_entries            0                       # Number of entries that have been flushed from TLB
system.cpu3.istage2_mmu.stage2_tlb.align_faults            0                       # Number of TLB faults due to alignment restrictions
system.cpu3.istage2_mmu.stage2_tlb.prefetch_faults            0                       # Number of TLB faults due to prefetch
system.cpu3.istage2_mmu.stage2_tlb.domain_faults            0                       # Number of TLB faults due to domain restrictions
system.cpu3.istage2_mmu.stage2_tlb.perms_faults            0                       # Number of TLB faults due to permissions restrictions
system.cpu3.istage2_mmu.stage2_tlb.read_accesses            0                       # DTB read accesses
system.cpu3.istage2_mmu.stage2_tlb.write_accesses            0                       # DTB write accesses
system.cpu3.istage2_mmu.stage2_tlb.inst_accesses            0                       # ITB inst accesses
system.cpu3.istage2_mmu.stage2_tlb.hits             0                       # DTB hits
system.cpu3.istage2_mmu.stage2_tlb.misses            0                       # DTB misses
system.cpu3.istage2_mmu.stage2_tlb.accesses            0                       # DTB accesses
system.cpu3.itb.inst_hits                   194203030                       # ITB inst hits
system.cpu3.itb.inst_misses                      1074                       # ITB inst misses
system.cpu3.itb.read_hits                           0                       # DTB read hits
system.cpu3.itb.read_misses                         0                       # DTB read misses
system.cpu3.itb.write_hits                          0                       # DTB write hits
system.cpu3.itb.write_misses                        0                       # DTB write misses
system.cpu3.itb.flush_tlb                           0                       # Number of times complete TLB was flushed
system.cpu3.itb.flush_tlb_mva                       0                       # Number of times TLB was flushed by MVA
system.cpu3.itb.flush_tlb_mva_asid               1424                       # Number of times TLB was flushed by MVA & ASID
system.cpu3.itb.flush_tlb_asid                     76                       # Number of times TLB was flushed by ASID
system.cpu3.itb.flush_entries                     484                       # Number of entries that have been flushed from TLB
system.cpu3.itb.align_faults                        0                       # Number of TLB faults due to alignment restrictions
system.cpu3.itb.prefetch_faults                     0                       # Number of TLB faults due to prefetch
system.cpu3.itb.domain_faults                       0                       # Number of TLB faults due to domain restrictions
system.cpu3.itb.perms_faults                        0                       # Number of TLB faults due to permissions restrictions
system.cpu3.itb.read_accesses                       0                       # DTB read accesses
system.cpu3.itb.write_accesses                      0                       # DTB write accesses
system.cpu3.itb.inst_accesses               194204104                       # ITB inst accesses
system.cpu3.itb.hits                        194203030                       # DTB hits
system.cpu3.itb.misses                           1074                       # DTB misses
system.cpu3.itb.accesses                    194204104                       # DTB accesses
system.cpu3.numCycles                       223120543                       # number of cpu cycles simulated
system.cpu3.numWorkItemsStarted                     0                       # number of work items this cpu started
system.cpu3.numWorkItemsCompleted                   0                       # number of work items this cpu completed
system.cpu3.committedInsts                  194116118                       # Number of instructions committed
system.cpu3.committedOps                    195489837                       # Number of ops (including micro ops) committed
system.cpu3.num_int_alu_accesses            174219389                       # Number of integer alu accesses
system.cpu3.num_fp_alu_accesses                  2514                       # Number of float alu accesses
system.cpu3.num_func_calls                   12260270                       # number of times a function call or return occured
system.cpu3.num_conditional_control_insts     24141008                       # number of instructions that are conditional controls
system.cpu3.num_int_insts                   174219389                       # number of integer instructions
system.cpu3.num_fp_insts                         2514                       # number of float instructions
system.cpu3.num_int_register_reads          234101505                       # number of times the integer registers were read
system.cpu3.num_int_register_writes         112635084                       # number of times the integer registers were written
system.cpu3.num_fp_register_reads                1408                       # number of times the floating registers were read
system.cpu3.num_fp_register_writes               1104                       # number of times the floating registers were written
system.cpu3.num_cc_register_reads           586397601                       # number of times the CC registers were read
system.cpu3.num_cc_register_writes          144066926                       # number of times the CC registers were written
system.cpu3.num_mem_refs                      7531117                       # number of memory refs
system.cpu3.num_load_insts                    5961553                       # Number of load instructions
system.cpu3.num_store_insts                   1569564                       # Number of store instructions
system.cpu3.num_idle_cycles              24904785.883515                       # Number of idle cycles
system.cpu3.num_busy_cycles              198215757.116485                       # Number of busy cycles
system.cpu3.not_idle_fraction                0.888380                       # Percentage of non-idle cycles
system.cpu3.idle_fraction                    0.111620                       # Percentage of idle cycles
system.cpu3.Branches                         33516703                       # Number of branches fetched
system.cpu3.op_class::No_OpClass                 2949      0.00%      0.00% # Class of executed instruction
system.cpu3.op_class::IntAlu                186484048     95.39%     95.39% # Class of executed instruction
system.cpu3.op_class::IntMult                 1481755      0.76%     96.15% # Class of executed instruction
system.cpu3.op_class::IntDiv                        0      0.00%     96.15% # Class of executed instruction
system.cpu3.op_class::FloatAdd                      0      0.00%     96.15% # Class of executed instruction
system.cpu3.op_class::FloatCmp                      0      0.00%     96.15% # Class of executed instruction
system.cpu3.op_class::FloatCvt                      0      0.00%     96.15% # Class of executed instruction
system.cpu3.op_class::FloatMult                     0      0.00%     96.15% # Class of executed instruction
system.cpu3.op_class::FloatDiv                      0      0.00%     96.15% # Class of executed instruction
system.cpu3.op_class::FloatSqrt                     0      0.00%     96.15% # Class of executed instruction
system.cpu3.op_class::SimdAdd                       0      0.00%     96.15% # Class of executed instruction
system.cpu3.op_class::SimdAddAcc                    0      0.00%     96.15% # Class of executed instruction
system.cpu3.op_class::SimdAlu                       0      0.00%     96.15% # Class of executed instruction
system.cpu3.op_class::SimdCmp                       0      0.00%     96.15% # Class of executed instruction
system.cpu3.op_class::SimdCvt                       0      0.00%     96.15% # Class of executed instruction
system.cpu3.op_class::SimdMisc                      0      0.00%     96.15% # Class of executed instruction
system.cpu3.op_class::SimdMult                      0      0.00%     96.15% # Class of executed instruction
system.cpu3.op_class::SimdMultAcc                   0      0.00%     96.15% # Class of executed instruction
system.cpu3.op_class::SimdShift                     0      0.00%     96.15% # Class of executed instruction
system.cpu3.op_class::SimdShiftAcc                  0      0.00%     96.15% # Class of executed instruction
system.cpu3.op_class::SimdSqrt                      0      0.00%     96.15% # Class of executed instruction
system.cpu3.op_class::SimdFloatAdd                  0      0.00%     96.15% # Class of executed instruction
system.cpu3.op_class::SimdFloatAlu                  0      0.00%     96.15% # Class of executed instruction
system.cpu3.op_class::SimdFloatCmp                  0      0.00%     96.15% # Class of executed instruction
system.cpu3.op_class::SimdFloatCvt                  0      0.00%     96.15% # Class of executed instruction
system.cpu3.op_class::SimdFloatDiv                  0      0.00%     96.15% # Class of executed instruction
system.cpu3.op_class::SimdFloatMisc               411      0.00%     96.15% # Class of executed instruction
system.cpu3.op_class::SimdFloatMult                 0      0.00%     96.15% # Class of executed instruction
system.cpu3.op_class::SimdFloatMultAcc              0      0.00%     96.15% # Class of executed instruction
system.cpu3.op_class::SimdFloatSqrt                 0      0.00%     96.15% # Class of executed instruction
system.cpu3.op_class::MemRead                 5961553      3.05%     99.20% # Class of executed instruction
system.cpu3.op_class::MemWrite                1569564      0.80%    100.00% # Class of executed instruction
system.cpu3.op_class::IprAccess                     0      0.00%    100.00% # Class of executed instruction
system.cpu3.op_class::InstPrefetch                  0      0.00%    100.00% # Class of executed instruction
system.cpu3.op_class::total                 195500280                       # Class of executed instruction
system.cpu3.kern.inst.arm                           0                       # number of arm instructions executed
system.cpu3.kern.inst.quiesce                    5553                       # number of quiesce instructions executed

---------- End Simulation Statistics   ----------
