
---------- Begin Simulation Statistics ----------
sim_seconds                                  0.141086                       # Number of seconds simulated
sim_ticks                                141086282000                       # Number of ticks simulated
final_tick                               3376658484000                       # Number of ticks from beginning of simulation (restored from checkpoints and never reset)
sim_freq                                 1000000000000                       # Frequency of simulated ticks
host_inst_rate                                 206469                       # Simulator instruction rate (inst/s)
host_op_rate                                   211910                       # Simulator op (including micro ops) rate (op/s)
host_tick_rate                               15139034                       # Simulator tick rate (ticks/s)
host_mem_usage                                1010792                       # Number of bytes of host memory used
host_seconds                                  9319.37                       # Real time elapsed on the host
sim_insts                                  1924163986                       # Number of instructions simulated
sim_ops                                    1974865910                       # Number of ops (including micro ops) simulated
system.voltage_domain.voltage                       1                       # Voltage in Volts
system.clk_domain.clock                          1000                       # Clock period in ticks
system.mem_ctrls.bytes_read::switch_cpus0.dtb.walker        44096                       # Number of bytes read from this memory
system.mem_ctrls.bytes_read::switch_cpus0.itb.walker        16512                       # Number of bytes read from this memory
system.mem_ctrls.bytes_read::switch_cpus0.inst       585856                       # Number of bytes read from this memory
system.mem_ctrls.bytes_read::switch_cpus0.data      5680512                       # Number of bytes read from this memory
system.mem_ctrls.bytes_read::switch_cpus1.dtb.walker         8704                       # Number of bytes read from this memory
system.mem_ctrls.bytes_read::switch_cpus1.itb.walker         3840                       # Number of bytes read from this memory
system.mem_ctrls.bytes_read::switch_cpus1.inst       183040                       # Number of bytes read from this memory
system.mem_ctrls.bytes_read::switch_cpus1.data       980416                       # Number of bytes read from this memory
system.mem_ctrls.bytes_read::switch_cpus2.dtb.walker        29184                       # Number of bytes read from this memory
system.mem_ctrls.bytes_read::switch_cpus2.itb.walker        20096                       # Number of bytes read from this memory
system.mem_ctrls.bytes_read::switch_cpus2.inst       467392                       # Number of bytes read from this memory
system.mem_ctrls.bytes_read::switch_cpus2.data      1395648                       # Number of bytes read from this memory
system.mem_ctrls.bytes_read::switch_cpus3.dtb.walker        11328                       # Number of bytes read from this memory
system.mem_ctrls.bytes_read::switch_cpus3.itb.walker        10240                       # Number of bytes read from this memory
system.mem_ctrls.bytes_read::switch_cpus3.inst       432320                       # Number of bytes read from this memory
system.mem_ctrls.bytes_read::switch_cpus3.data      1441472                       # Number of bytes read from this memory
system.mem_ctrls.bytes_read::switch_cpus4.dtb.walker        19008                       # Number of bytes read from this memory
system.mem_ctrls.bytes_read::switch_cpus4.itb.walker        11136                       # Number of bytes read from this memory
system.mem_ctrls.bytes_read::switch_cpus4.inst       723456                       # Number of bytes read from this memory
system.mem_ctrls.bytes_read::switch_cpus4.data      2098048                       # Number of bytes read from this memory
system.mem_ctrls.bytes_read::switch_cpus5.dtb.walker         7552                       # Number of bytes read from this memory
system.mem_ctrls.bytes_read::switch_cpus5.itb.walker         3520                       # Number of bytes read from this memory
system.mem_ctrls.bytes_read::switch_cpus5.inst       184960                       # Number of bytes read from this memory
system.mem_ctrls.bytes_read::switch_cpus5.data       436864                       # Number of bytes read from this memory
system.mem_ctrls.bytes_read::switch_cpus6.dtb.walker        16512                       # Number of bytes read from this memory
system.mem_ctrls.bytes_read::switch_cpus6.itb.walker         8064                       # Number of bytes read from this memory
system.mem_ctrls.bytes_read::switch_cpus6.inst      1164928                       # Number of bytes read from this memory
system.mem_ctrls.bytes_read::switch_cpus6.data      3497536                       # Number of bytes read from this memory
system.mem_ctrls.bytes_read::switch_cpus7.dtb.walker         4672                       # Number of bytes read from this memory
system.mem_ctrls.bytes_read::switch_cpus7.itb.walker         1920                       # Number of bytes read from this memory
system.mem_ctrls.bytes_read::switch_cpus7.inst        95424                       # Number of bytes read from this memory
system.mem_ctrls.bytes_read::switch_cpus7.data       282112                       # Number of bytes read from this memory
system.mem_ctrls.bytes_read::realview.ide          512                       # Number of bytes read from this memory
system.mem_ctrls.bytes_read::l2.prefetcher     45332800                       # Number of bytes read from this memory
system.mem_ctrls.bytes_read::cpu0.inst            320                       # Number of bytes read from this memory
system.mem_ctrls.bytes_read::cpu0.data            192                       # Number of bytes read from this memory
system.mem_ctrls.bytes_read::cpu2.data            256                       # Number of bytes read from this memory
system.mem_ctrls.bytes_read::cpu3.inst            128                       # Number of bytes read from this memory
system.mem_ctrls.bytes_read::cpu3.data            256                       # Number of bytes read from this memory
system.mem_ctrls.bytes_read::total           65200832                       # Number of bytes read from this memory
system.mem_ctrls.bytes_inst_read::switch_cpus0.inst       585856                       # Number of instructions bytes read from this memory
system.mem_ctrls.bytes_inst_read::switch_cpus1.inst       183040                       # Number of instructions bytes read from this memory
system.mem_ctrls.bytes_inst_read::switch_cpus2.inst       467392                       # Number of instructions bytes read from this memory
system.mem_ctrls.bytes_inst_read::switch_cpus3.inst       432320                       # Number of instructions bytes read from this memory
system.mem_ctrls.bytes_inst_read::switch_cpus4.inst       723456                       # Number of instructions bytes read from this memory
system.mem_ctrls.bytes_inst_read::switch_cpus5.inst       184960                       # Number of instructions bytes read from this memory
system.mem_ctrls.bytes_inst_read::switch_cpus6.inst      1164928                       # Number of instructions bytes read from this memory
system.mem_ctrls.bytes_inst_read::switch_cpus7.inst        95424                       # Number of instructions bytes read from this memory
system.mem_ctrls.bytes_inst_read::cpu0.inst          320                       # Number of instructions bytes read from this memory
system.mem_ctrls.bytes_inst_read::cpu3.inst          128                       # Number of instructions bytes read from this memory
system.mem_ctrls.bytes_inst_read::total       3837824                       # Number of instructions bytes read from this memory
system.mem_ctrls.bytes_written::writebacks     23952768                       # Number of bytes written to this memory
system.mem_ctrls.bytes_written::realview.ide      5110784                       # Number of bytes written to this memory
system.mem_ctrls.bytes_written::total        29063552                       # Number of bytes written to this memory
system.mem_ctrls.num_reads::switch_cpus0.dtb.walker          689                       # Number of read requests responded to by this memory
system.mem_ctrls.num_reads::switch_cpus0.itb.walker          258                       # Number of read requests responded to by this memory
system.mem_ctrls.num_reads::switch_cpus0.inst         9154                       # Number of read requests responded to by this memory
system.mem_ctrls.num_reads::switch_cpus0.data        88758                       # Number of read requests responded to by this memory
system.mem_ctrls.num_reads::switch_cpus1.dtb.walker          136                       # Number of read requests responded to by this memory
system.mem_ctrls.num_reads::switch_cpus1.itb.walker           60                       # Number of read requests responded to by this memory
system.mem_ctrls.num_reads::switch_cpus1.inst         2860                       # Number of read requests responded to by this memory
system.mem_ctrls.num_reads::switch_cpus1.data        15319                       # Number of read requests responded to by this memory
system.mem_ctrls.num_reads::switch_cpus2.dtb.walker          456                       # Number of read requests responded to by this memory
system.mem_ctrls.num_reads::switch_cpus2.itb.walker          314                       # Number of read requests responded to by this memory
system.mem_ctrls.num_reads::switch_cpus2.inst         7303                       # Number of read requests responded to by this memory
system.mem_ctrls.num_reads::switch_cpus2.data        21807                       # Number of read requests responded to by this memory
system.mem_ctrls.num_reads::switch_cpus3.dtb.walker          177                       # Number of read requests responded to by this memory
system.mem_ctrls.num_reads::switch_cpus3.itb.walker          160                       # Number of read requests responded to by this memory
system.mem_ctrls.num_reads::switch_cpus3.inst         6755                       # Number of read requests responded to by this memory
system.mem_ctrls.num_reads::switch_cpus3.data        22523                       # Number of read requests responded to by this memory
system.mem_ctrls.num_reads::switch_cpus4.dtb.walker          297                       # Number of read requests responded to by this memory
system.mem_ctrls.num_reads::switch_cpus4.itb.walker          174                       # Number of read requests responded to by this memory
system.mem_ctrls.num_reads::switch_cpus4.inst        11304                       # Number of read requests responded to by this memory
system.mem_ctrls.num_reads::switch_cpus4.data        32782                       # Number of read requests responded to by this memory
system.mem_ctrls.num_reads::switch_cpus5.dtb.walker          118                       # Number of read requests responded to by this memory
system.mem_ctrls.num_reads::switch_cpus5.itb.walker           55                       # Number of read requests responded to by this memory
system.mem_ctrls.num_reads::switch_cpus5.inst         2890                       # Number of read requests responded to by this memory
system.mem_ctrls.num_reads::switch_cpus5.data         6826                       # Number of read requests responded to by this memory
system.mem_ctrls.num_reads::switch_cpus6.dtb.walker          258                       # Number of read requests responded to by this memory
system.mem_ctrls.num_reads::switch_cpus6.itb.walker          126                       # Number of read requests responded to by this memory
system.mem_ctrls.num_reads::switch_cpus6.inst        18202                       # Number of read requests responded to by this memory
system.mem_ctrls.num_reads::switch_cpus6.data        54649                       # Number of read requests responded to by this memory
system.mem_ctrls.num_reads::switch_cpus7.dtb.walker           73                       # Number of read requests responded to by this memory
system.mem_ctrls.num_reads::switch_cpus7.itb.walker           30                       # Number of read requests responded to by this memory
system.mem_ctrls.num_reads::switch_cpus7.inst         1491                       # Number of read requests responded to by this memory
system.mem_ctrls.num_reads::switch_cpus7.data         4408                       # Number of read requests responded to by this memory
system.mem_ctrls.num_reads::realview.ide            8                       # Number of read requests responded to by this memory
system.mem_ctrls.num_reads::l2.prefetcher       708325                       # Number of read requests responded to by this memory
system.mem_ctrls.num_reads::cpu0.inst               5                       # Number of read requests responded to by this memory
system.mem_ctrls.num_reads::cpu0.data               3                       # Number of read requests responded to by this memory
system.mem_ctrls.num_reads::cpu2.data               4                       # Number of read requests responded to by this memory
system.mem_ctrls.num_reads::cpu3.inst               2                       # Number of read requests responded to by this memory
system.mem_ctrls.num_reads::cpu3.data               4                       # Number of read requests responded to by this memory
system.mem_ctrls.num_reads::total             1018763                       # Number of read requests responded to by this memory
system.mem_ctrls.num_writes::writebacks        374262                       # Number of write requests responded to by this memory
system.mem_ctrls.num_writes::realview.ide        79856                       # Number of write requests responded to by this memory
system.mem_ctrls.num_writes::total             454118                       # Number of write requests responded to by this memory
system.mem_ctrls.bw_read::switch_cpus0.dtb.walker       312546                       # Total read bandwidth from this memory (bytes/s)
system.mem_ctrls.bw_read::switch_cpus0.itb.walker       117035                       # Total read bandwidth from this memory (bytes/s)
system.mem_ctrls.bw_read::switch_cpus0.inst      4152466                       # Total read bandwidth from this memory (bytes/s)
system.mem_ctrls.bw_read::switch_cpus0.data     40262681                       # Total read bandwidth from this memory (bytes/s)
system.mem_ctrls.bw_read::switch_cpus1.dtb.walker        61693                       # Total read bandwidth from this memory (bytes/s)
system.mem_ctrls.bw_read::switch_cpus1.itb.walker        27217                       # Total read bandwidth from this memory (bytes/s)
system.mem_ctrls.bw_read::switch_cpus1.inst      1297362                       # Total read bandwidth from this memory (bytes/s)
system.mem_ctrls.bw_read::switch_cpus1.data      6949053                       # Total read bandwidth from this memory (bytes/s)
system.mem_ctrls.bw_read::switch_cpus2.dtb.walker       206852                       # Total read bandwidth from this memory (bytes/s)
system.mem_ctrls.bw_read::switch_cpus2.itb.walker       142438                       # Total read bandwidth from this memory (bytes/s)
system.mem_ctrls.bw_read::switch_cpus2.inst      3312810                       # Total read bandwidth from this memory (bytes/s)
system.mem_ctrls.bw_read::switch_cpus2.data      9892159                       # Total read bandwidth from this memory (bytes/s)
system.mem_ctrls.bw_read::switch_cpus3.dtb.walker        80291                       # Total read bandwidth from this memory (bytes/s)
system.mem_ctrls.bw_read::switch_cpus3.itb.walker        72580                       # Total read bandwidth from this memory (bytes/s)
system.mem_ctrls.bw_read::switch_cpus3.inst      3064224                       # Total read bandwidth from this memory (bytes/s)
system.mem_ctrls.bw_read::switch_cpus3.data     10216954                       # Total read bandwidth from this memory (bytes/s)
system.mem_ctrls.bw_read::switch_cpus4.dtb.walker       134726                       # Total read bandwidth from this memory (bytes/s)
system.mem_ctrls.bw_read::switch_cpus4.itb.walker        78930                       # Total read bandwidth from this memory (bytes/s)
system.mem_ctrls.bw_read::switch_cpus4.inst      5127756                       # Total read bandwidth from this memory (bytes/s)
system.mem_ctrls.bw_read::switch_cpus4.data     14870673                       # Total read bandwidth from this memory (bytes/s)
system.mem_ctrls.bw_read::switch_cpus5.dtb.walker        53528                       # Total read bandwidth from this memory (bytes/s)
system.mem_ctrls.bw_read::switch_cpus5.itb.walker        24949                       # Total read bandwidth from this memory (bytes/s)
system.mem_ctrls.bw_read::switch_cpus5.inst      1310971                       # Total read bandwidth from this memory (bytes/s)
system.mem_ctrls.bw_read::switch_cpus5.data      3096431                       # Total read bandwidth from this memory (bytes/s)
system.mem_ctrls.bw_read::switch_cpus6.dtb.walker       117035                       # Total read bandwidth from this memory (bytes/s)
system.mem_ctrls.bw_read::switch_cpus6.itb.walker        57157                       # Total read bandwidth from this memory (bytes/s)
system.mem_ctrls.bw_read::switch_cpus6.inst      8256848                       # Total read bandwidth from this memory (bytes/s)
system.mem_ctrls.bw_read::switch_cpus6.data     24790050                       # Total read bandwidth from this memory (bytes/s)
system.mem_ctrls.bw_read::switch_cpus7.dtb.walker        33114                       # Total read bandwidth from this memory (bytes/s)
system.mem_ctrls.bw_read::switch_cpus7.itb.walker        13609                       # Total read bandwidth from this memory (bytes/s)
system.mem_ctrls.bw_read::switch_cpus7.inst       676352                       # Total read bandwidth from this memory (bytes/s)
system.mem_ctrls.bw_read::switch_cpus7.data      1999571                       # Total read bandwidth from this memory (bytes/s)
system.mem_ctrls.bw_read::realview.ide           3629                       # Total read bandwidth from this memory (bytes/s)
system.mem_ctrls.bw_read::l2.prefetcher     321312599                       # Total read bandwidth from this memory (bytes/s)
system.mem_ctrls.bw_read::cpu0.inst              2268                       # Total read bandwidth from this memory (bytes/s)
system.mem_ctrls.bw_read::cpu0.data              1361                       # Total read bandwidth from this memory (bytes/s)
system.mem_ctrls.bw_read::cpu2.data              1814                       # Total read bandwidth from this memory (bytes/s)
system.mem_ctrls.bw_read::cpu3.inst               907                       # Total read bandwidth from this memory (bytes/s)
system.mem_ctrls.bw_read::cpu3.data              1814                       # Total read bandwidth from this memory (bytes/s)
system.mem_ctrls.bw_read::total             462134455                       # Total read bandwidth from this memory (bytes/s)
system.mem_ctrls.bw_inst_read::switch_cpus0.inst      4152466                       # Instruction read bandwidth from this memory (bytes/s)
system.mem_ctrls.bw_inst_read::switch_cpus1.inst      1297362                       # Instruction read bandwidth from this memory (bytes/s)
system.mem_ctrls.bw_inst_read::switch_cpus2.inst      3312810                       # Instruction read bandwidth from this memory (bytes/s)
system.mem_ctrls.bw_inst_read::switch_cpus3.inst      3064224                       # Instruction read bandwidth from this memory (bytes/s)
system.mem_ctrls.bw_inst_read::switch_cpus4.inst      5127756                       # Instruction read bandwidth from this memory (bytes/s)
system.mem_ctrls.bw_inst_read::switch_cpus5.inst      1310971                       # Instruction read bandwidth from this memory (bytes/s)
system.mem_ctrls.bw_inst_read::switch_cpus6.inst      8256848                       # Instruction read bandwidth from this memory (bytes/s)
system.mem_ctrls.bw_inst_read::switch_cpus7.inst       676352                       # Instruction read bandwidth from this memory (bytes/s)
system.mem_ctrls.bw_inst_read::cpu0.inst         2268                       # Instruction read bandwidth from this memory (bytes/s)
system.mem_ctrls.bw_inst_read::cpu3.inst          907                       # Instruction read bandwidth from this memory (bytes/s)
system.mem_ctrls.bw_inst_read::total         27201964                       # Instruction read bandwidth from this memory (bytes/s)
system.mem_ctrls.bw_write::writebacks       169773898                       # Write bandwidth from this memory (bytes/s)
system.mem_ctrls.bw_write::realview.ide      36224528                       # Write bandwidth from this memory (bytes/s)
system.mem_ctrls.bw_write::total            205998426                       # Write bandwidth from this memory (bytes/s)
system.mem_ctrls.bw_total::writebacks       169773898                       # Total bandwidth to/from this memory (bytes/s)
system.mem_ctrls.bw_total::switch_cpus0.dtb.walker       312546                       # Total bandwidth to/from this memory (bytes/s)
system.mem_ctrls.bw_total::switch_cpus0.itb.walker       117035                       # Total bandwidth to/from this memory (bytes/s)
system.mem_ctrls.bw_total::switch_cpus0.inst      4152466                       # Total bandwidth to/from this memory (bytes/s)
system.mem_ctrls.bw_total::switch_cpus0.data     40262681                       # Total bandwidth to/from this memory (bytes/s)
system.mem_ctrls.bw_total::switch_cpus1.dtb.walker        61693                       # Total bandwidth to/from this memory (bytes/s)
system.mem_ctrls.bw_total::switch_cpus1.itb.walker        27217                       # Total bandwidth to/from this memory (bytes/s)
system.mem_ctrls.bw_total::switch_cpus1.inst      1297362                       # Total bandwidth to/from this memory (bytes/s)
system.mem_ctrls.bw_total::switch_cpus1.data      6949053                       # Total bandwidth to/from this memory (bytes/s)
system.mem_ctrls.bw_total::switch_cpus2.dtb.walker       206852                       # Total bandwidth to/from this memory (bytes/s)
system.mem_ctrls.bw_total::switch_cpus2.itb.walker       142438                       # Total bandwidth to/from this memory (bytes/s)
system.mem_ctrls.bw_total::switch_cpus2.inst      3312810                       # Total bandwidth to/from this memory (bytes/s)
system.mem_ctrls.bw_total::switch_cpus2.data      9892159                       # Total bandwidth to/from this memory (bytes/s)
system.mem_ctrls.bw_total::switch_cpus3.dtb.walker        80291                       # Total bandwidth to/from this memory (bytes/s)
system.mem_ctrls.bw_total::switch_cpus3.itb.walker        72580                       # Total bandwidth to/from this memory (bytes/s)
system.mem_ctrls.bw_total::switch_cpus3.inst      3064224                       # Total bandwidth to/from this memory (bytes/s)
system.mem_ctrls.bw_total::switch_cpus3.data     10216954                       # Total bandwidth to/from this memory (bytes/s)
system.mem_ctrls.bw_total::switch_cpus4.dtb.walker       134726                       # Total bandwidth to/from this memory (bytes/s)
system.mem_ctrls.bw_total::switch_cpus4.itb.walker        78930                       # Total bandwidth to/from this memory (bytes/s)
system.mem_ctrls.bw_total::switch_cpus4.inst      5127756                       # Total bandwidth to/from this memory (bytes/s)
system.mem_ctrls.bw_total::switch_cpus4.data     14870673                       # Total bandwidth to/from this memory (bytes/s)
system.mem_ctrls.bw_total::switch_cpus5.dtb.walker        53528                       # Total bandwidth to/from this memory (bytes/s)
system.mem_ctrls.bw_total::switch_cpus5.itb.walker        24949                       # Total bandwidth to/from this memory (bytes/s)
system.mem_ctrls.bw_total::switch_cpus5.inst      1310971                       # Total bandwidth to/from this memory (bytes/s)
system.mem_ctrls.bw_total::switch_cpus5.data      3096431                       # Total bandwidth to/from this memory (bytes/s)
system.mem_ctrls.bw_total::switch_cpus6.dtb.walker       117035                       # Total bandwidth to/from this memory (bytes/s)
system.mem_ctrls.bw_total::switch_cpus6.itb.walker        57157                       # Total bandwidth to/from this memory (bytes/s)
system.mem_ctrls.bw_total::switch_cpus6.inst      8256848                       # Total bandwidth to/from this memory (bytes/s)
system.mem_ctrls.bw_total::switch_cpus6.data     24790050                       # Total bandwidth to/from this memory (bytes/s)
system.mem_ctrls.bw_total::switch_cpus7.dtb.walker        33114                       # Total bandwidth to/from this memory (bytes/s)
system.mem_ctrls.bw_total::switch_cpus7.itb.walker        13609                       # Total bandwidth to/from this memory (bytes/s)
system.mem_ctrls.bw_total::switch_cpus7.inst       676352                       # Total bandwidth to/from this memory (bytes/s)
system.mem_ctrls.bw_total::switch_cpus7.data      1999571                       # Total bandwidth to/from this memory (bytes/s)
system.mem_ctrls.bw_total::realview.ide      36228157                       # Total bandwidth to/from this memory (bytes/s)
system.mem_ctrls.bw_total::l2.prefetcher    321312599                       # Total bandwidth to/from this memory (bytes/s)
system.mem_ctrls.bw_total::cpu0.inst             2268                       # Total bandwidth to/from this memory (bytes/s)
system.mem_ctrls.bw_total::cpu0.data             1361                       # Total bandwidth to/from this memory (bytes/s)
system.mem_ctrls.bw_total::cpu2.data             1814                       # Total bandwidth to/from this memory (bytes/s)
system.mem_ctrls.bw_total::cpu3.inst              907                       # Total bandwidth to/from this memory (bytes/s)
system.mem_ctrls.bw_total::cpu3.data             1814                       # Total bandwidth to/from this memory (bytes/s)
system.mem_ctrls.bw_total::total            668132881                       # Total bandwidth to/from this memory (bytes/s)
system.mem_ctrls.readReqs                     1018745                       # Number of read requests accepted
system.mem_ctrls.writeReqs                     454118                       # Number of write requests accepted
system.mem_ctrls.readBursts                   1018745                       # Number of DRAM read bursts, including those serviced by the write queue
system.mem_ctrls.writeBursts                   454118                       # Number of DRAM write bursts, including those merged in the write queue
system.mem_ctrls.bytesReadDRAM               65113792                       # Total number of bytes read from DRAM
system.mem_ctrls.bytesReadWrQ                   85888                       # Total number of bytes read from write queue
system.mem_ctrls.bytesWritten                29062144                       # Total number of bytes written to DRAM
system.mem_ctrls.bytesReadSys                65199680                       # Total read bytes from the system interface side
system.mem_ctrls.bytesWrittenSys             29063552                       # Total written bytes from the system interface side
system.mem_ctrls.servicedByWrQ                   1342                       # Number of DRAM read bursts serviced by the write queue
system.mem_ctrls.mergedWrBursts                     2                       # Number of DRAM write bursts merged with an existing one
system.mem_ctrls.neitherReadNorWriteReqs        35747                       # Number of requests that are neither read nor write
system.mem_ctrls.perBankRdBursts::0             69294                       # Per bank write bursts
system.mem_ctrls.perBankRdBursts::1             52657                       # Per bank write bursts
system.mem_ctrls.perBankRdBursts::2             64470                       # Per bank write bursts
system.mem_ctrls.perBankRdBursts::3             69001                       # Per bank write bursts
system.mem_ctrls.perBankRdBursts::4             62994                       # Per bank write bursts
system.mem_ctrls.perBankRdBursts::5             56349                       # Per bank write bursts
system.mem_ctrls.perBankRdBursts::6             67974                       # Per bank write bursts
system.mem_ctrls.perBankRdBursts::7             74336                       # Per bank write bursts
system.mem_ctrls.perBankRdBursts::8             82405                       # Per bank write bursts
system.mem_ctrls.perBankRdBursts::9             87393                       # Per bank write bursts
system.mem_ctrls.perBankRdBursts::10            62414                       # Per bank write bursts
system.mem_ctrls.perBankRdBursts::11            67664                       # Per bank write bursts
system.mem_ctrls.perBankRdBursts::12            47270                       # Per bank write bursts
system.mem_ctrls.perBankRdBursts::13            50022                       # Per bank write bursts
system.mem_ctrls.perBankRdBursts::14            51085                       # Per bank write bursts
system.mem_ctrls.perBankRdBursts::15            52075                       # Per bank write bursts
system.mem_ctrls.perBankWrBursts::0             35733                       # Per bank write bursts
system.mem_ctrls.perBankWrBursts::1             26765                       # Per bank write bursts
system.mem_ctrls.perBankWrBursts::2             26447                       # Per bank write bursts
system.mem_ctrls.perBankWrBursts::3             27521                       # Per bank write bursts
system.mem_ctrls.perBankWrBursts::4             26149                       # Per bank write bursts
system.mem_ctrls.perBankWrBursts::5             25189                       # Per bank write bursts
system.mem_ctrls.perBankWrBursts::6             26027                       # Per bank write bursts
system.mem_ctrls.perBankWrBursts::7             28324                       # Per bank write bursts
system.mem_ctrls.perBankWrBursts::8             32622                       # Per bank write bursts
system.mem_ctrls.perBankWrBursts::9             31109                       # Per bank write bursts
system.mem_ctrls.perBankWrBursts::10            27599                       # Per bank write bursts
system.mem_ctrls.perBankWrBursts::11            32370                       # Per bank write bursts
system.mem_ctrls.perBankWrBursts::12            28999                       # Per bank write bursts
system.mem_ctrls.perBankWrBursts::13            27873                       # Per bank write bursts
system.mem_ctrls.perBankWrBursts::14            26087                       # Per bank write bursts
system.mem_ctrls.perBankWrBursts::15            25282                       # Per bank write bursts
system.mem_ctrls.numRdRetry                         0                       # Number of times read queue was full causing retry
system.mem_ctrls.numWrRetry                        61                       # Number of times write queue was full causing retry
system.mem_ctrls.totGap                  141086241000                       # Total gap between requests
system.mem_ctrls.readPktSize::0                     0                       # Read request sizes (log2)
system.mem_ctrls.readPktSize::1                     0                       # Read request sizes (log2)
system.mem_ctrls.readPktSize::2                     0                       # Read request sizes (log2)
system.mem_ctrls.readPktSize::3                     0                       # Read request sizes (log2)
system.mem_ctrls.readPktSize::4                     0                       # Read request sizes (log2)
system.mem_ctrls.readPktSize::5                     0                       # Read request sizes (log2)
system.mem_ctrls.readPktSize::6               1018745                       # Read request sizes (log2)
system.mem_ctrls.writePktSize::0                    0                       # Write request sizes (log2)
system.mem_ctrls.writePktSize::1                    0                       # Write request sizes (log2)
system.mem_ctrls.writePktSize::2                    0                       # Write request sizes (log2)
system.mem_ctrls.writePktSize::3                    0                       # Write request sizes (log2)
system.mem_ctrls.writePktSize::4                    0                       # Write request sizes (log2)
system.mem_ctrls.writePktSize::5                    0                       # Write request sizes (log2)
system.mem_ctrls.writePktSize::6               454118                       # Write request sizes (log2)
system.mem_ctrls.rdQLenPdf::0                  365151                       # What read queue length does an incoming req see
system.mem_ctrls.rdQLenPdf::1                  246944                       # What read queue length does an incoming req see
system.mem_ctrls.rdQLenPdf::2                  125619                       # What read queue length does an incoming req see
system.mem_ctrls.rdQLenPdf::3                   76035                       # What read queue length does an incoming req see
system.mem_ctrls.rdQLenPdf::4                   53670                       # What read queue length does an incoming req see
system.mem_ctrls.rdQLenPdf::5                   41127                       # What read queue length does an incoming req see
system.mem_ctrls.rdQLenPdf::6                   32271                       # What read queue length does an incoming req see
system.mem_ctrls.rdQLenPdf::7                   25555                       # What read queue length does an incoming req see
system.mem_ctrls.rdQLenPdf::8                   20048                       # What read queue length does an incoming req see
system.mem_ctrls.rdQLenPdf::9                   10794                       # What read queue length does an incoming req see
system.mem_ctrls.rdQLenPdf::10                   7070                       # What read queue length does an incoming req see
system.mem_ctrls.rdQLenPdf::11                   5212                       # What read queue length does an incoming req see
system.mem_ctrls.rdQLenPdf::12                   3191                       # What read queue length does an incoming req see
system.mem_ctrls.rdQLenPdf::13                   2141                       # What read queue length does an incoming req see
system.mem_ctrls.rdQLenPdf::14                   1523                       # What read queue length does an incoming req see
system.mem_ctrls.rdQLenPdf::15                   1052                       # What read queue length does an incoming req see
system.mem_ctrls.rdQLenPdf::16                      0                       # What read queue length does an incoming req see
system.mem_ctrls.rdQLenPdf::17                      0                       # What read queue length does an incoming req see
system.mem_ctrls.rdQLenPdf::18                      0                       # What read queue length does an incoming req see
system.mem_ctrls.rdQLenPdf::19                      0                       # What read queue length does an incoming req see
system.mem_ctrls.rdQLenPdf::20                      0                       # What read queue length does an incoming req see
system.mem_ctrls.rdQLenPdf::21                      0                       # What read queue length does an incoming req see
system.mem_ctrls.rdQLenPdf::22                      0                       # What read queue length does an incoming req see
system.mem_ctrls.rdQLenPdf::23                      0                       # What read queue length does an incoming req see
system.mem_ctrls.rdQLenPdf::24                      0                       # What read queue length does an incoming req see
system.mem_ctrls.rdQLenPdf::25                      0                       # What read queue length does an incoming req see
system.mem_ctrls.rdQLenPdf::26                      0                       # What read queue length does an incoming req see
system.mem_ctrls.rdQLenPdf::27                      0                       # What read queue length does an incoming req see
system.mem_ctrls.rdQLenPdf::28                      0                       # What read queue length does an incoming req see
system.mem_ctrls.rdQLenPdf::29                      0                       # What read queue length does an incoming req see
system.mem_ctrls.rdQLenPdf::30                      0                       # What read queue length does an incoming req see
system.mem_ctrls.rdQLenPdf::31                      0                       # What read queue length does an incoming req see
system.mem_ctrls.wrQLenPdf::0                       1                       # What write queue length does an incoming req see
system.mem_ctrls.wrQLenPdf::1                       1                       # What write queue length does an incoming req see
system.mem_ctrls.wrQLenPdf::2                       1                       # What write queue length does an incoming req see
system.mem_ctrls.wrQLenPdf::3                       1                       # What write queue length does an incoming req see
system.mem_ctrls.wrQLenPdf::4                       1                       # What write queue length does an incoming req see
system.mem_ctrls.wrQLenPdf::5                       1                       # What write queue length does an incoming req see
system.mem_ctrls.wrQLenPdf::6                       1                       # What write queue length does an incoming req see
system.mem_ctrls.wrQLenPdf::7                       1                       # What write queue length does an incoming req see
system.mem_ctrls.wrQLenPdf::8                       1                       # What write queue length does an incoming req see
system.mem_ctrls.wrQLenPdf::9                       1                       # What write queue length does an incoming req see
system.mem_ctrls.wrQLenPdf::10                      1                       # What write queue length does an incoming req see
system.mem_ctrls.wrQLenPdf::11                      1                       # What write queue length does an incoming req see
system.mem_ctrls.wrQLenPdf::12                      1                       # What write queue length does an incoming req see
system.mem_ctrls.wrQLenPdf::13                      1                       # What write queue length does an incoming req see
system.mem_ctrls.wrQLenPdf::14                      1                       # What write queue length does an incoming req see
system.mem_ctrls.wrQLenPdf::15                   5887                       # What write queue length does an incoming req see
system.mem_ctrls.wrQLenPdf::16                   6808                       # What write queue length does an incoming req see
system.mem_ctrls.wrQLenPdf::17                  12970                       # What write queue length does an incoming req see
system.mem_ctrls.wrQLenPdf::18                  17230                       # What write queue length does an incoming req see
system.mem_ctrls.wrQLenPdf::19                  20155                       # What write queue length does an incoming req see
system.mem_ctrls.wrQLenPdf::20                  22343                       # What write queue length does an incoming req see
system.mem_ctrls.wrQLenPdf::21                  23979                       # What write queue length does an incoming req see
system.mem_ctrls.wrQLenPdf::22                  26170                       # What write queue length does an incoming req see
system.mem_ctrls.wrQLenPdf::23                  27762                       # What write queue length does an incoming req see
system.mem_ctrls.wrQLenPdf::24                  29696                       # What write queue length does an incoming req see
system.mem_ctrls.wrQLenPdf::25                  30415                       # What write queue length does an incoming req see
system.mem_ctrls.wrQLenPdf::26                  30658                       # What write queue length does an incoming req see
system.mem_ctrls.wrQLenPdf::27                  31078                       # What write queue length does an incoming req see
system.mem_ctrls.wrQLenPdf::28                  32184                       # What write queue length does an incoming req see
system.mem_ctrls.wrQLenPdf::29                  30067                       # What write queue length does an incoming req see
system.mem_ctrls.wrQLenPdf::30                  29421                       # What write queue length does an incoming req see
system.mem_ctrls.wrQLenPdf::31                  29071                       # What write queue length does an incoming req see
system.mem_ctrls.wrQLenPdf::32                  27538                       # What write queue length does an incoming req see
system.mem_ctrls.wrQLenPdf::33                   2459                       # What write queue length does an incoming req see
system.mem_ctrls.wrQLenPdf::34                   1906                       # What write queue length does an incoming req see
system.mem_ctrls.wrQLenPdf::35                   1568                       # What write queue length does an incoming req see
system.mem_ctrls.wrQLenPdf::36                   1260                       # What write queue length does an incoming req see
system.mem_ctrls.wrQLenPdf::37                   1131                       # What write queue length does an incoming req see
system.mem_ctrls.wrQLenPdf::38                    927                       # What write queue length does an incoming req see
system.mem_ctrls.wrQLenPdf::39                    838                       # What write queue length does an incoming req see
system.mem_ctrls.wrQLenPdf::40                    777                       # What write queue length does an incoming req see
system.mem_ctrls.wrQLenPdf::41                    702                       # What write queue length does an incoming req see
system.mem_ctrls.wrQLenPdf::42                    645                       # What write queue length does an incoming req see
system.mem_ctrls.wrQLenPdf::43                    619                       # What write queue length does an incoming req see
system.mem_ctrls.wrQLenPdf::44                    595                       # What write queue length does an incoming req see
system.mem_ctrls.wrQLenPdf::45                    576                       # What write queue length does an incoming req see
system.mem_ctrls.wrQLenPdf::46                    575                       # What write queue length does an incoming req see
system.mem_ctrls.wrQLenPdf::47                    550                       # What write queue length does an incoming req see
system.mem_ctrls.wrQLenPdf::48                    561                       # What write queue length does an incoming req see
system.mem_ctrls.wrQLenPdf::49                    546                       # What write queue length does an incoming req see
system.mem_ctrls.wrQLenPdf::50                    535                       # What write queue length does an incoming req see
system.mem_ctrls.wrQLenPdf::51                    518                       # What write queue length does an incoming req see
system.mem_ctrls.wrQLenPdf::52                    491                       # What write queue length does an incoming req see
system.mem_ctrls.wrQLenPdf::53                    477                       # What write queue length does an incoming req see
system.mem_ctrls.wrQLenPdf::54                    452                       # What write queue length does an incoming req see
system.mem_ctrls.wrQLenPdf::55                    360                       # What write queue length does an incoming req see
system.mem_ctrls.wrQLenPdf::56                    297                       # What write queue length does an incoming req see
system.mem_ctrls.wrQLenPdf::57                    291                       # What write queue length does an incoming req see
system.mem_ctrls.wrQLenPdf::58                    248                       # What write queue length does an incoming req see
system.mem_ctrls.wrQLenPdf::59                    192                       # What write queue length does an incoming req see
system.mem_ctrls.wrQLenPdf::60                    175                       # What write queue length does an incoming req see
system.mem_ctrls.wrQLenPdf::61                    134                       # What write queue length does an incoming req see
system.mem_ctrls.wrQLenPdf::62                    114                       # What write queue length does an incoming req see
system.mem_ctrls.wrQLenPdf::63                    150                       # What write queue length does an incoming req see
system.mem_ctrls.bytesPerActivate::samples       545580                       # Bytes accessed per row activation
system.mem_ctrls.bytesPerActivate::mean    172.615360                       # Bytes accessed per row activation
system.mem_ctrls.bytesPerActivate::gmean   110.644811                       # Bytes accessed per row activation
system.mem_ctrls.bytesPerActivate::stdev   224.918239                       # Bytes accessed per row activation
system.mem_ctrls.bytesPerActivate::0-127       327312     59.99%     59.99% # Bytes accessed per row activation
system.mem_ctrls.bytesPerActivate::128-255       120512     22.09%     82.08% # Bytes accessed per row activation
system.mem_ctrls.bytesPerActivate::256-383        33385      6.12%     88.20% # Bytes accessed per row activation
system.mem_ctrls.bytesPerActivate::384-511        17048      3.12%     91.33% # Bytes accessed per row activation
system.mem_ctrls.bytesPerActivate::512-639        11618      2.13%     93.46% # Bytes accessed per row activation
system.mem_ctrls.bytesPerActivate::640-767         6764      1.24%     94.70% # Bytes accessed per row activation
system.mem_ctrls.bytesPerActivate::768-895         4645      0.85%     95.55% # Bytes accessed per row activation
system.mem_ctrls.bytesPerActivate::896-1023         3654      0.67%     96.22% # Bytes accessed per row activation
system.mem_ctrls.bytesPerActivate::1024-1151        20642      3.78%    100.00% # Bytes accessed per row activation
system.mem_ctrls.bytesPerActivate::total       545580                       # Bytes accessed per row activation
system.mem_ctrls.rdPerTurnAround::samples        26115                       # Reads before turning the bus around for writes
system.mem_ctrls.rdPerTurnAround::mean      38.957840                       # Reads before turning the bus around for writes
system.mem_ctrls.rdPerTurnAround::stdev    117.181552                       # Reads before turning the bus around for writes
system.mem_ctrls.rdPerTurnAround::0-1023        26114    100.00%    100.00% # Reads before turning the bus around for writes
system.mem_ctrls.rdPerTurnAround::18432-19455            1      0.00%    100.00% # Reads before turning the bus around for writes
system.mem_ctrls.rdPerTurnAround::total         26115                       # Reads before turning the bus around for writes
system.mem_ctrls.wrPerTurnAround::samples        26115                       # Writes before turning the bus around for reads
system.mem_ctrls.wrPerTurnAround::mean      17.388321                       # Writes before turning the bus around for reads
system.mem_ctrls.wrPerTurnAround::gmean     17.065254                       # Writes before turning the bus around for reads
system.mem_ctrls.wrPerTurnAround::stdev      4.750572                       # Writes before turning the bus around for reads
system.mem_ctrls.wrPerTurnAround::16-19         24278     92.97%     92.97% # Writes before turning the bus around for reads
system.mem_ctrls.wrPerTurnAround::20-23           934      3.58%     96.54% # Writes before turning the bus around for reads
system.mem_ctrls.wrPerTurnAround::24-27           160      0.61%     97.15% # Writes before turning the bus around for reads
system.mem_ctrls.wrPerTurnAround::28-31           199      0.76%     97.92% # Writes before turning the bus around for reads
system.mem_ctrls.wrPerTurnAround::32-35           172      0.66%     98.58% # Writes before turning the bus around for reads
system.mem_ctrls.wrPerTurnAround::36-39            90      0.34%     98.92% # Writes before turning the bus around for reads
system.mem_ctrls.wrPerTurnAround::40-43            67      0.26%     99.18% # Writes before turning the bus around for reads
system.mem_ctrls.wrPerTurnAround::44-47            53      0.20%     99.38% # Writes before turning the bus around for reads
system.mem_ctrls.wrPerTurnAround::48-51            46      0.18%     99.56% # Writes before turning the bus around for reads
system.mem_ctrls.wrPerTurnAround::52-55            31      0.12%     99.67% # Writes before turning the bus around for reads
system.mem_ctrls.wrPerTurnAround::56-59            21      0.08%     99.75% # Writes before turning the bus around for reads
system.mem_ctrls.wrPerTurnAround::60-63             7      0.03%     99.78% # Writes before turning the bus around for reads
system.mem_ctrls.wrPerTurnAround::64-67            22      0.08%     99.87% # Writes before turning the bus around for reads
system.mem_ctrls.wrPerTurnAround::68-71            12      0.05%     99.91% # Writes before turning the bus around for reads
system.mem_ctrls.wrPerTurnAround::72-75             5      0.02%     99.93% # Writes before turning the bus around for reads
system.mem_ctrls.wrPerTurnAround::76-79             5      0.02%     99.95% # Writes before turning the bus around for reads
system.mem_ctrls.wrPerTurnAround::80-83             4      0.02%     99.97% # Writes before turning the bus around for reads
system.mem_ctrls.wrPerTurnAround::84-87             1      0.00%     99.97% # Writes before turning the bus around for reads
system.mem_ctrls.wrPerTurnAround::88-91             3      0.01%     99.98% # Writes before turning the bus around for reads
system.mem_ctrls.wrPerTurnAround::92-95             1      0.00%     99.98% # Writes before turning the bus around for reads
system.mem_ctrls.wrPerTurnAround::96-99             1      0.00%     99.99% # Writes before turning the bus around for reads
system.mem_ctrls.wrPerTurnAround::100-103            1      0.00%     99.99% # Writes before turning the bus around for reads
system.mem_ctrls.wrPerTurnAround::132-135            2      0.01%    100.00% # Writes before turning the bus around for reads
system.mem_ctrls.wrPerTurnAround::total         26115                       # Writes before turning the bus around for reads
system.mem_ctrls.totQLat                  34718450255                       # Total ticks spent queuing
system.mem_ctrls.totMemAccLat             53794756505                       # Total ticks spent from burst creation until serviced by the DRAM
system.mem_ctrls.totBusLat                 5087015000                       # Total ticks spent in databus transfers
system.mem_ctrls.avgQLat                     34124.58                       # Average queueing delay per DRAM burst
system.mem_ctrls.avgBusLat                    5000.00                       # Average bus latency per DRAM burst
system.mem_ctrls.avgMemAccLat                52874.58                       # Average memory access latency per DRAM burst
system.mem_ctrls.avgRdBW                       461.52                       # Average DRAM read bandwidth in MiByte/s
system.mem_ctrls.avgWrBW                       205.99                       # Average achieved write bandwidth in MiByte/s
system.mem_ctrls.avgRdBWSys                    462.13                       # Average system read bandwidth in MiByte/s
system.mem_ctrls.avgWrBWSys                    206.00                       # Average system write bandwidth in MiByte/s
system.mem_ctrls.peakBW                      12800.00                       # Theoretical peak bandwidth in MiByte/s
system.mem_ctrls.busUtil                         5.21                       # Data bus utilization in percentage
system.mem_ctrls.busUtilRead                     3.61                       # Data bus utilization in percentage for reads
system.mem_ctrls.busUtilWrite                    1.61                       # Data bus utilization in percentage for writes
system.mem_ctrls.avgRdQLen                       1.75                       # Average read queue length when enqueuing
system.mem_ctrls.avgWrQLen                      25.07                       # Average write queue length when enqueuing
system.mem_ctrls.readRowHits                   731227                       # Number of row buffer hits during reads
system.mem_ctrls.writeRowHits                  194687                       # Number of row buffer hits during writes
system.mem_ctrls.readRowHitRate                 71.87                       # Row buffer hit rate for reads
system.mem_ctrls.writeRowHitRate                42.87                       # Row buffer hit rate for writes
system.mem_ctrls.avgGap                      95790.47                       # Average gap between requests
system.mem_ctrls.pageHitRate                    62.92                       # Row buffer hit rate, read and write combined
system.mem_ctrls.memoryStateTime::IDLE    26065570194                       # Time in different power states
system.mem_ctrls.memoryStateTime::REF      4710940000                       # Time in different power states
system.mem_ctrls.memoryStateTime::PRE_PDN            0                       # Time in different power states
system.mem_ctrls.memoryStateTime::ACT    110302982306                       # Time in different power states
system.mem_ctrls.memoryStateTime::ACT_PDN            0                       # Time in different power states
system.mem_ctrls.actEnergy::0              2089636920                       # Energy for activate commands per rank (pJ)
system.mem_ctrls.actEnergy::1              2034940320                       # Energy for activate commands per rank (pJ)
system.mem_ctrls.preEnergy::0              1140178875                       # Energy for precharge commands per rank (pJ)
system.mem_ctrls.preEnergy::1              1110334500                       # Energy for precharge commands per rank (pJ)
system.mem_ctrls.readEnergy::0             4033185000                       # Energy for read commands per rank (pJ)
system.mem_ctrls.readEnergy::1             3902488200                       # Energy for read commands per rank (pJ)
system.mem_ctrls.writeEnergy::0            1439564400                       # Energy for write commands per rank (pJ)
system.mem_ctrls.writeEnergy::1            1502977680                       # Energy for write commands per rank (pJ)
system.mem_ctrls.refreshEnergy::0          9214598640                       # Energy for refresh commands per rank (pJ)
system.mem_ctrls.refreshEnergy::1          9214598640                       # Energy for refresh commands per rank (pJ)
system.mem_ctrls.actBackEnergy::0         66294652275                       # Energy for active background per rank (pJ)
system.mem_ctrls.actBackEnergy::1         68099111820                       # Energy for active background per rank (pJ)
system.mem_ctrls.preBackEnergy::0         26494390500                       # Energy for precharge background per rank (pJ)
system.mem_ctrls.preBackEnergy::1         24911531250                       # Energy for precharge background per rank (pJ)
system.mem_ctrls.totalEnergy::0          110706206610                       # Total energy per rank (pJ)
system.mem_ctrls.totalEnergy::1          110775982410                       # Total energy per rank (pJ)
system.mem_ctrls.averagePower::0           784.708940                       # Core power per rank (mW)
system.mem_ctrls.averagePower::1           785.203526                       # Core power per rank (mW)
system.cpu_voltage_domain.voltage                   1                       # Voltage in Volts
system.cpu_clk_domain.clock                       500                       # Clock period in ticks
system.tol2bus.trans_dist::ReadReq            3867402                       # Transaction distribution
system.tol2bus.trans_dist::ReadResp           3867359                       # Transaction distribution
system.tol2bus.trans_dist::WriteReq              3823                       # Transaction distribution
system.tol2bus.trans_dist::WriteResp             3823                       # Transaction distribution
system.tol2bus.trans_dist::Writeback           990377                       # Transaction distribution
system.tol2bus.trans_dist::HardPFReq          1548976                       # Transaction distribution
system.tol2bus.trans_dist::HardPFResp               4                       # Transaction distribution
system.tol2bus.trans_dist::WriteInvalidateReq        79913                       # Transaction distribution
system.tol2bus.trans_dist::UpgradeReq           57909                       # Transaction distribution
system.tol2bus.trans_dist::SCUpgradeReq         27088                       # Transaction distribution
system.tol2bus.trans_dist::UpgradeResp          84997                       # Transaction distribution
system.tol2bus.trans_dist::SCUpgradeFailReq           12                       # Transaction distribution
system.tol2bus.trans_dist::UpgradeFailResp           12                       # Transaction distribution
system.tol2bus.trans_dist::ReadExReq           643270                       # Transaction distribution
system.tol2bus.trans_dist::ReadExResp          643270                       # Transaction distribution
system.tol2bus.pkt_count_system.cpu0.icache.mem_side::system.l2.cpu_side       580089                       # Packet count per connected master and slave (bytes)
system.tol2bus.pkt_count_system.cpu0.dcache.mem_side::system.l2.cpu_side      1061985                       # Packet count per connected master and slave (bytes)
system.tol2bus.pkt_count_system.cpu0.itb.walker.dma::system.l2.cpu_side        27423                       # Packet count per connected master and slave (bytes)
system.tol2bus.pkt_count_system.cpu0.dtb.walker.dma::system.l2.cpu_side        67133                       # Packet count per connected master and slave (bytes)
system.tol2bus.pkt_count_system.cpu1.icache.mem_side::system.l2.cpu_side       128945                       # Packet count per connected master and slave (bytes)
system.tol2bus.pkt_count_system.cpu1.dcache.mem_side::system.l2.cpu_side       194491                       # Packet count per connected master and slave (bytes)
system.tol2bus.pkt_count_system.cpu1.itb.walker.dma::system.l2.cpu_side         6455                       # Packet count per connected master and slave (bytes)
system.tol2bus.pkt_count_system.cpu1.dtb.walker.dma::system.l2.cpu_side        15384                       # Packet count per connected master and slave (bytes)
system.tol2bus.pkt_count_system.cpu2.icache.mem_side::system.l2.cpu_side       385191                       # Packet count per connected master and slave (bytes)
system.tol2bus.pkt_count_system.cpu2.dcache.mem_side::system.l2.cpu_side       442600                       # Packet count per connected master and slave (bytes)
system.tol2bus.pkt_count_system.cpu2.itb.walker.dma::system.l2.cpu_side        21329                       # Packet count per connected master and slave (bytes)
system.tol2bus.pkt_count_system.cpu2.dtb.walker.dma::system.l2.cpu_side        49391                       # Packet count per connected master and slave (bytes)
system.tol2bus.pkt_count_system.cpu3.icache.mem_side::system.l2.cpu_side       514376                       # Packet count per connected master and slave (bytes)
system.tol2bus.pkt_count_system.cpu3.dcache.mem_side::system.l2.cpu_side       627042                       # Packet count per connected master and slave (bytes)
system.tol2bus.pkt_count_system.cpu3.itb.walker.dma::system.l2.cpu_side        26563                       # Packet count per connected master and slave (bytes)
system.tol2bus.pkt_count_system.cpu3.dtb.walker.dma::system.l2.cpu_side        61441                       # Packet count per connected master and slave (bytes)
system.tol2bus.pkt_count_system.cpu4.icache.mem_side::system.l2.cpu_side       879575                       # Packet count per connected master and slave (bytes)
system.tol2bus.pkt_count_system.cpu4.dcache.mem_side::system.l2.cpu_side       756215                       # Packet count per connected master and slave (bytes)
system.tol2bus.pkt_count_system.cpu4.itb.walker.dma::system.l2.cpu_side        33812                       # Packet count per connected master and slave (bytes)
system.tol2bus.pkt_count_system.cpu4.dtb.walker.dma::system.l2.cpu_side       111375                       # Packet count per connected master and slave (bytes)
system.tol2bus.pkt_count_system.cpu5.icache.mem_side::system.l2.cpu_side       194749                       # Packet count per connected master and slave (bytes)
system.tol2bus.pkt_count_system.cpu5.dcache.mem_side::system.l2.cpu_side       196726                       # Packet count per connected master and slave (bytes)
system.tol2bus.pkt_count_system.cpu5.itb.walker.dma::system.l2.cpu_side        16691                       # Packet count per connected master and slave (bytes)
system.tol2bus.pkt_count_system.cpu5.dtb.walker.dma::system.l2.cpu_side        29685                       # Packet count per connected master and slave (bytes)
system.tol2bus.pkt_count_system.cpu6.icache.mem_side::system.l2.cpu_side      1704688                       # Packet count per connected master and slave (bytes)
system.tol2bus.pkt_count_system.cpu6.dcache.mem_side::system.l2.cpu_side      1280911                       # Packet count per connected master and slave (bytes)
system.tol2bus.pkt_count_system.cpu6.itb.walker.dma::system.l2.cpu_side        45474                       # Packet count per connected master and slave (bytes)
system.tol2bus.pkt_count_system.cpu6.dtb.walker.dma::system.l2.cpu_side       196962                       # Packet count per connected master and slave (bytes)
system.tol2bus.pkt_count_system.cpu7.icache.mem_side::system.l2.cpu_side        55780                       # Packet count per connected master and slave (bytes)
system.tol2bus.pkt_count_system.cpu7.dcache.mem_side::system.l2.cpu_side        70882                       # Packet count per connected master and slave (bytes)
system.tol2bus.pkt_count_system.cpu7.itb.walker.dma::system.l2.cpu_side         3846                       # Packet count per connected master and slave (bytes)
system.tol2bus.pkt_count_system.cpu7.dtb.walker.dma::system.l2.cpu_side         8475                       # Packet count per connected master and slave (bytes)
system.tol2bus.pkt_count::total               9795684                       # Packet count per connected master and slave (bytes)
system.tol2bus.pkt_size_system.cpu0.icache.mem_side::system.l2.cpu_side     18562560                       # Cumulative packet size per connected master and slave (bytes)
system.tol2bus.pkt_size_system.cpu0.dcache.mem_side::system.l2.cpu_side     41390343                       # Cumulative packet size per connected master and slave (bytes)
system.tol2bus.pkt_size_system.cpu0.itb.walker.dma::system.l2.cpu_side        53704                       # Cumulative packet size per connected master and slave (bytes)
system.tol2bus.pkt_size_system.cpu0.dtb.walker.dma::system.l2.cpu_side       122732                       # Cumulative packet size per connected master and slave (bytes)
system.tol2bus.pkt_size_system.cpu1.icache.mem_side::system.l2.cpu_side      4126016                       # Cumulative packet size per connected master and slave (bytes)
system.tol2bus.pkt_size_system.cpu1.dcache.mem_side::system.l2.cpu_side      7273353                       # Cumulative packet size per connected master and slave (bytes)
system.tol2bus.pkt_size_system.cpu1.itb.walker.dma::system.l2.cpu_side        11352                       # Cumulative packet size per connected master and slave (bytes)
system.tol2bus.pkt_size_system.cpu1.dtb.walker.dma::system.l2.cpu_side        25548                       # Cumulative packet size per connected master and slave (bytes)
system.tol2bus.pkt_size_system.cpu2.icache.mem_side::system.l2.cpu_side     12325504                       # Cumulative packet size per connected master and slave (bytes)
system.tol2bus.pkt_size_system.cpu2.dcache.mem_side::system.l2.cpu_side     16643504                       # Cumulative packet size per connected master and slave (bytes)
system.tol2bus.pkt_size_system.cpu2.itb.walker.dma::system.l2.cpu_side        41052                       # Cumulative packet size per connected master and slave (bytes)
system.tol2bus.pkt_size_system.cpu2.dtb.walker.dma::system.l2.cpu_side        91084                       # Cumulative packet size per connected master and slave (bytes)
system.tol2bus.pkt_size_system.cpu3.icache.mem_side::system.l2.cpu_side     16460032                       # Cumulative packet size per connected master and slave (bytes)
system.tol2bus.pkt_size_system.cpu3.dcache.mem_side::system.l2.cpu_side     22589300                       # Cumulative packet size per connected master and slave (bytes)
system.tol2bus.pkt_size_system.cpu3.itb.walker.dma::system.l2.cpu_side        29284                       # Cumulative packet size per connected master and slave (bytes)
system.tol2bus.pkt_size_system.cpu3.dtb.walker.dma::system.l2.cpu_side        72248                       # Cumulative packet size per connected master and slave (bytes)
system.tol2bus.pkt_size_system.cpu4.icache.mem_side::system.l2.cpu_side     28146304                       # Cumulative packet size per connected master and slave (bytes)
system.tol2bus.pkt_size_system.cpu4.dcache.mem_side::system.l2.cpu_side     27517590                       # Cumulative packet size per connected master and slave (bytes)
system.tol2bus.pkt_size_system.cpu4.itb.walker.dma::system.l2.cpu_side        40804                       # Cumulative packet size per connected master and slave (bytes)
system.tol2bus.pkt_size_system.cpu4.dtb.walker.dma::system.l2.cpu_side       156544                       # Cumulative packet size per connected master and slave (bytes)
system.tol2bus.pkt_size_system.cpu5.icache.mem_side::system.l2.cpu_side      6231936                       # Cumulative packet size per connected master and slave (bytes)
system.tol2bus.pkt_size_system.cpu5.dcache.mem_side::system.l2.cpu_side      6328004                       # Cumulative packet size per connected master and slave (bytes)
system.tol2bus.pkt_size_system.cpu5.itb.walker.dma::system.l2.cpu_side        15916                       # Cumulative packet size per connected master and slave (bytes)
system.tol2bus.pkt_size_system.cpu5.dtb.walker.dma::system.l2.cpu_side        29780                       # Cumulative packet size per connected master and slave (bytes)
system.tol2bus.pkt_size_system.cpu6.icache.mem_side::system.l2.cpu_side     54549248                       # Cumulative packet size per connected master and slave (bytes)
system.tol2bus.pkt_size_system.cpu6.dcache.mem_side::system.l2.cpu_side     46909252                       # Cumulative packet size per connected master and slave (bytes)
system.tol2bus.pkt_size_system.cpu6.itb.walker.dma::system.l2.cpu_side        60328                       # Cumulative packet size per connected master and slave (bytes)
system.tol2bus.pkt_size_system.cpu6.dtb.walker.dma::system.l2.cpu_side       278772                       # Cumulative packet size per connected master and slave (bytes)
system.tol2bus.pkt_size_system.cpu7.icache.mem_side::system.l2.cpu_side      1784960                       # Cumulative packet size per connected master and slave (bytes)
system.tol2bus.pkt_size_system.cpu7.dcache.mem_side::system.l2.cpu_side      2475964                       # Cumulative packet size per connected master and slave (bytes)
system.tol2bus.pkt_size_system.cpu7.itb.walker.dma::system.l2.cpu_side         5888                       # Cumulative packet size per connected master and slave (bytes)
system.tol2bus.pkt_size_system.cpu7.dtb.walker.dma::system.l2.cpu_side        13156                       # Cumulative packet size per connected master and slave (bytes)
system.tol2bus.pkt_size::total              314362062                       # Cumulative packet size per connected master and slave (bytes)
system.tol2bus.snoops                         2023117                       # Total snoops (count)
system.tol2bus.snoop_fanout::samples          7220326                       # Request fanout histogram
system.tol2bus.snoop_fanout::mean           47.225681                       # Request fanout histogram
system.tol2bus.snoop_fanout::stdev           0.418030                       # Request fanout histogram
system.tol2bus.snoop_fanout::underflows             0      0.00%      0.00% # Request fanout histogram
system.tol2bus.snoop_fanout::0                      0      0.00%      0.00% # Request fanout histogram
system.tol2bus.snoop_fanout::1                      0      0.00%      0.00% # Request fanout histogram
system.tol2bus.snoop_fanout::2                      0      0.00%      0.00% # Request fanout histogram
system.tol2bus.snoop_fanout::3                      0      0.00%      0.00% # Request fanout histogram
system.tol2bus.snoop_fanout::4                      0      0.00%      0.00% # Request fanout histogram
system.tol2bus.snoop_fanout::5                      0      0.00%      0.00% # Request fanout histogram
system.tol2bus.snoop_fanout::6                      0      0.00%      0.00% # Request fanout histogram
system.tol2bus.snoop_fanout::7                      0      0.00%      0.00% # Request fanout histogram
system.tol2bus.snoop_fanout::8                      0      0.00%      0.00% # Request fanout histogram
system.tol2bus.snoop_fanout::9                      0      0.00%      0.00% # Request fanout histogram
system.tol2bus.snoop_fanout::10                     0      0.00%      0.00% # Request fanout histogram
system.tol2bus.snoop_fanout::11                     0      0.00%      0.00% # Request fanout histogram
system.tol2bus.snoop_fanout::12                     0      0.00%      0.00% # Request fanout histogram
system.tol2bus.snoop_fanout::13                     0      0.00%      0.00% # Request fanout histogram
system.tol2bus.snoop_fanout::14                     0      0.00%      0.00% # Request fanout histogram
system.tol2bus.snoop_fanout::15                     0      0.00%      0.00% # Request fanout histogram
system.tol2bus.snoop_fanout::16                     0      0.00%      0.00% # Request fanout histogram
system.tol2bus.snoop_fanout::17                     0      0.00%      0.00% # Request fanout histogram
system.tol2bus.snoop_fanout::18                     0      0.00%      0.00% # Request fanout histogram
system.tol2bus.snoop_fanout::19                     0      0.00%      0.00% # Request fanout histogram
system.tol2bus.snoop_fanout::20                     0      0.00%      0.00% # Request fanout histogram
system.tol2bus.snoop_fanout::21                     0      0.00%      0.00% # Request fanout histogram
system.tol2bus.snoop_fanout::22                     0      0.00%      0.00% # Request fanout histogram
system.tol2bus.snoop_fanout::23                     0      0.00%      0.00% # Request fanout histogram
system.tol2bus.snoop_fanout::24                     0      0.00%      0.00% # Request fanout histogram
system.tol2bus.snoop_fanout::25                     0      0.00%      0.00% # Request fanout histogram
system.tol2bus.snoop_fanout::26                     0      0.00%      0.00% # Request fanout histogram
system.tol2bus.snoop_fanout::27                     0      0.00%      0.00% # Request fanout histogram
system.tol2bus.snoop_fanout::28                     0      0.00%      0.00% # Request fanout histogram
system.tol2bus.snoop_fanout::29                     0      0.00%      0.00% # Request fanout histogram
system.tol2bus.snoop_fanout::30                     0      0.00%      0.00% # Request fanout histogram
system.tol2bus.snoop_fanout::31                     0      0.00%      0.00% # Request fanout histogram
system.tol2bus.snoop_fanout::32                     0      0.00%      0.00% # Request fanout histogram
system.tol2bus.snoop_fanout::33                     0      0.00%      0.00% # Request fanout histogram
system.tol2bus.snoop_fanout::34                     0      0.00%      0.00% # Request fanout histogram
system.tol2bus.snoop_fanout::35                     0      0.00%      0.00% # Request fanout histogram
system.tol2bus.snoop_fanout::36                     0      0.00%      0.00% # Request fanout histogram
system.tol2bus.snoop_fanout::37                     0      0.00%      0.00% # Request fanout histogram
system.tol2bus.snoop_fanout::38                     0      0.00%      0.00% # Request fanout histogram
system.tol2bus.snoop_fanout::39                     0      0.00%      0.00% # Request fanout histogram
system.tol2bus.snoop_fanout::40                     0      0.00%      0.00% # Request fanout histogram
system.tol2bus.snoop_fanout::41                     0      0.00%      0.00% # Request fanout histogram
system.tol2bus.snoop_fanout::42                     0      0.00%      0.00% # Request fanout histogram
system.tol2bus.snoop_fanout::43                     0      0.00%      0.00% # Request fanout histogram
system.tol2bus.snoop_fanout::44                     0      0.00%      0.00% # Request fanout histogram
system.tol2bus.snoop_fanout::45                     0      0.00%      0.00% # Request fanout histogram
system.tol2bus.snoop_fanout::46                     0      0.00%      0.00% # Request fanout histogram
system.tol2bus.snoop_fanout::47               5590832     77.43%     77.43% # Request fanout histogram
system.tol2bus.snoop_fanout::48               1629494     22.57%    100.00% # Request fanout histogram
system.tol2bus.snoop_fanout::overflows              0      0.00%    100.00% # Request fanout histogram
system.tol2bus.snoop_fanout::min_value             47                       # Request fanout histogram
system.tol2bus.snoop_fanout::max_value             48                       # Request fanout histogram
system.tol2bus.snoop_fanout::total            7220326                       # Request fanout histogram
system.tol2bus.reqLayer0.occupancy         3797962506                       # Layer occupancy (ticks)
system.tol2bus.reqLayer0.utilization              2.7                       # Layer utilization (%)
system.tol2bus.snoopLayer0.occupancy           849000                       # Layer occupancy (ticks)
system.tol2bus.snoopLayer0.utilization            0.0                       # Layer utilization (%)
system.tol2bus.respLayer0.occupancy         436759774                       # Layer occupancy (ticks)
system.tol2bus.respLayer0.utilization             0.3                       # Layer utilization (%)
system.tol2bus.respLayer1.occupancy         614866616                       # Layer occupancy (ticks)
system.tol2bus.respLayer1.utilization             0.4                       # Layer utilization (%)
system.tol2bus.respLayer2.occupancy          14053194                       # Layer occupancy (ticks)
system.tol2bus.respLayer2.utilization             0.0                       # Layer utilization (%)
system.tol2bus.respLayer3.occupancy          36582378                       # Layer occupancy (ticks)
system.tol2bus.respLayer3.utilization             0.0                       # Layer utilization (%)
system.tol2bus.respLayer6.occupancy          97283062                       # Layer occupancy (ticks)
system.tol2bus.respLayer6.utilization             0.1                       # Layer utilization (%)
system.tol2bus.respLayer7.occupancy         117055550                       # Layer occupancy (ticks)
system.tol2bus.respLayer7.utilization             0.1                       # Layer utilization (%)
system.tol2bus.respLayer8.occupancy           3630733                       # Layer occupancy (ticks)
system.tol2bus.respLayer8.utilization             0.0                       # Layer utilization (%)
system.tol2bus.respLayer9.occupancy           9027207                       # Layer occupancy (ticks)
system.tol2bus.respLayer9.utilization             0.0                       # Layer utilization (%)
system.tol2bus.respLayer12.occupancy        290406333                       # Layer occupancy (ticks)
system.tol2bus.respLayer12.utilization            0.2                       # Layer utilization (%)
system.tol2bus.respLayer13.occupancy        262736851                       # Layer occupancy (ticks)
system.tol2bus.respLayer13.utilization            0.2                       # Layer utilization (%)
system.tol2bus.respLayer14.occupancy         11128200                       # Layer occupancy (ticks)
system.tol2bus.respLayer14.utilization            0.0                       # Layer utilization (%)
system.tol2bus.respLayer15.occupancy         26719185                       # Layer occupancy (ticks)
system.tol2bus.respLayer15.utilization            0.0                       # Layer utilization (%)
system.tol2bus.respLayer18.occupancy        387346190                       # Layer occupancy (ticks)
system.tol2bus.respLayer18.utilization            0.3                       # Layer utilization (%)
system.tol2bus.respLayer19.occupancy        384903665                       # Layer occupancy (ticks)
system.tol2bus.respLayer19.utilization            0.3                       # Layer utilization (%)
system.tol2bus.respLayer20.occupancy         19281207                       # Layer occupancy (ticks)
system.tol2bus.respLayer20.utilization            0.0                       # Layer utilization (%)
system.tol2bus.respLayer21.occupancy         43452139                       # Layer occupancy (ticks)
system.tol2bus.respLayer21.utilization            0.0                       # Layer utilization (%)
system.tol2bus.respLayer24.occupancy        662070460                       # Layer occupancy (ticks)
system.tol2bus.respLayer24.utilization            0.5                       # Layer utilization (%)
system.tol2bus.respLayer25.occupancy        464634557                       # Layer occupancy (ticks)
system.tol2bus.respLayer25.utilization            0.3                       # Layer utilization (%)
system.tol2bus.respLayer26.occupancy         23647968                       # Layer occupancy (ticks)
system.tol2bus.respLayer26.utilization            0.0                       # Layer utilization (%)
system.tol2bus.respLayer27.occupancy         72342599                       # Layer occupancy (ticks)
system.tol2bus.respLayer27.utilization            0.1                       # Layer utilization (%)
system.tol2bus.respLayer30.occupancy        146853347                       # Layer occupancy (ticks)
system.tol2bus.respLayer30.utilization            0.1                       # Layer utilization (%)
system.tol2bus.respLayer31.occupancy        132646898                       # Layer occupancy (ticks)
system.tol2bus.respLayer31.utilization            0.1                       # Layer utilization (%)
system.tol2bus.respLayer32.occupancy         12728476                       # Layer occupancy (ticks)
[...]
system.cpu7.dcache.StoreCondFailReq_mshr_miss_latency::switch_cpus7.data        46000                       # number of StoreCondFailReq MSHR miss cycles
system.cpu7.dcache.StoreCondFailReq_mshr_miss_latency::total        46000                       # number of StoreCondFailReq MSHR miss cycles
system.cpu7.dcache.demand_mshr_miss_latency::switch_cpus7.data    477877029                       # number of demand (read+write) MSHR miss cycles
system.cpu7.dcache.demand_mshr_miss_latency::total    477877029                       # number of demand (read+write) MSHR miss cycles
system.cpu7.dcache.overall_mshr_miss_latency::switch_cpus7.data    616798782                       # number of overall MSHR miss cycles
system.cpu7.dcache.overall_mshr_miss_latency::total    616798782                       # number of overall MSHR miss cycles
system.cpu7.dcache.ReadReq_mshr_uncacheable_latency::switch_cpus7.data      2680997                       # number of ReadReq MSHR uncacheable cycles
system.cpu7.dcache.ReadReq_mshr_uncacheable_latency::total      2680997                       # number of ReadReq MSHR uncacheable cycles
system.cpu7.dcache.WriteReq_mshr_uncacheable_latency::switch_cpus7.data      2011000                       # number of WriteReq MSHR uncacheable cycles
system.cpu7.dcache.WriteReq_mshr_uncacheable_latency::total      2011000                       # number of WriteReq MSHR uncacheable cycles
system.cpu7.dcache.overall_mshr_uncacheable_latency::switch_cpus7.data      4691997                       # number of overall MSHR uncacheable cycles
system.cpu7.dcache.overall_mshr_uncacheable_latency::total      4691997                       # number of overall MSHR uncacheable cycles
system.cpu7.dcache.ReadReq_mshr_miss_rate::switch_cpus7.data     0.000936                       # mshr miss rate for ReadReq accesses
system.cpu7.dcache.ReadReq_mshr_miss_rate::total     0.000936                       # mshr miss rate for ReadReq accesses
system.cpu7.dcache.WriteReq_mshr_miss_rate::switch_cpus7.data     0.001620                       # mshr miss rate for WriteReq accesses
system.cpu7.dcache.WriteReq_mshr_miss_rate::total     0.001620                       # mshr miss rate for WriteReq accesses
system.cpu7.dcache.SoftPFReq_mshr_miss_rate::switch_cpus7.data     0.432983                       # mshr miss rate for SoftPFReq accesses
system.cpu7.dcache.SoftPFReq_mshr_miss_rate::total     0.432983                       # mshr miss rate for SoftPFReq accesses
system.cpu7.dcache.LoadLockedReq_mshr_miss_rate::switch_cpus7.data     0.038166                       # mshr miss rate for LoadLockedReq accesses
system.cpu7.dcache.LoadLockedReq_mshr_miss_rate::total     0.038166                       # mshr miss rate for LoadLockedReq accesses
system.cpu7.dcache.StoreCondReq_mshr_miss_rate::switch_cpus7.data     0.103313                       # mshr miss rate for StoreCondReq accesses
system.cpu7.dcache.StoreCondReq_mshr_miss_rate::total     0.103313                       # mshr miss rate for StoreCondReq accesses
system.cpu7.dcache.demand_mshr_miss_rate::switch_cpus7.data     0.001126                       # mshr miss rate for demand accesses
system.cpu7.dcache.demand_mshr_miss_rate::total     0.001126                       # mshr miss rate for demand accesses
system.cpu7.dcache.overall_mshr_miss_rate::switch_cpus7.data     0.001255                       # mshr miss rate for overall accesses
system.cpu7.dcache.overall_mshr_miss_rate::total     0.001255                       # mshr miss rate for overall accesses
system.cpu7.dcache.ReadReq_avg_mshr_miss_latency::switch_cpus7.data 21062.942331                       # average ReadReq mshr miss latency
system.cpu7.dcache.ReadReq_avg_mshr_miss_latency::total 21062.942331                       # average ReadReq mshr miss latency
system.cpu7.dcache.WriteReq_avg_mshr_miss_latency::switch_cpus7.data 12510.037997                       # average WriteReq mshr miss latency
system.cpu7.dcache.WriteReq_avg_mshr_miss_latency::total 12510.037997                       # average WriteReq mshr miss latency
system.cpu7.dcache.SoftPFReq_avg_mshr_miss_latency::switch_cpus7.data 44426.527982                       # average SoftPFReq mshr miss latency
system.cpu7.dcache.SoftPFReq_avg_mshr_miss_latency::total 44426.527982                       # average SoftPFReq mshr miss latency
system.cpu7.dcache.LoadLockedReq_avg_mshr_miss_latency::switch_cpus7.data 25754.586081                       # average LoadLockedReq mshr miss latency
system.cpu7.dcache.LoadLockedReq_avg_mshr_miss_latency::total 25754.586081                       # average LoadLockedReq mshr miss latency
system.cpu7.dcache.StoreCondReq_avg_mshr_miss_latency::switch_cpus7.data  3479.578059                       # average StoreCondReq mshr miss latency
system.cpu7.dcache.StoreCondReq_avg_mshr_miss_latency::total  3479.578059                       # average StoreCondReq mshr miss latency
system.cpu7.dcache.StoreCondFailReq_avg_mshr_miss_latency::switch_cpus7.data          inf                       # average StoreCondFailReq mshr miss latency
system.cpu7.dcache.StoreCondFailReq_avg_mshr_miss_latency::total          inf                       # average StoreCondFailReq mshr miss latency
system.cpu7.dcache.demand_avg_mshr_miss_latency::switch_cpus7.data 17639.696910                       # average overall mshr miss latency
system.cpu7.dcache.demand_avg_mshr_miss_latency::total 17639.696910                       # average overall mshr miss latency
system.cpu7.dcache.overall_avg_mshr_miss_latency::switch_cpus7.data 20411.634853                       # average overall mshr miss latency
system.cpu7.dcache.overall_avg_mshr_miss_latency::total 20411.634853                       # average overall mshr miss latency
system.cpu7.dcache.ReadReq_avg_mshr_uncacheable_latency::switch_cpus7.data          inf                       # average ReadReq mshr uncacheable latency
system.cpu7.dcache.ReadReq_avg_mshr_uncacheable_latency::total          inf                       # average ReadReq mshr uncacheable latency
system.cpu7.dcache.WriteReq_avg_mshr_uncacheable_latency::switch_cpus7.data          inf                       # average WriteReq mshr uncacheable latency
system.cpu7.dcache.WriteReq_avg_mshr_uncacheable_latency::total          inf                       # average WriteReq mshr uncacheable latency
system.cpu7.dcache.overall_avg_mshr_uncacheable_latency::switch_cpus7.data          inf                       # average overall mshr uncacheable latency
system.cpu7.dcache.overall_avg_mshr_uncacheable_latency::total          inf                       # average overall mshr uncacheable latency
system.cpu7.dcache.no_allocate_misses               0                       # Number of misses that were no-allocate
system.iocache.tags.replacements                80445                       # number of replacements
system.iocache.tags.tagsinuse               15.953813                       # Cycle average of tags in use
system.iocache.tags.total_refs                      0                       # Total number of references to valid blocks.
system.iocache.tags.sampled_refs                80461                       # Sample count of references to valid blocks.
system.iocache.tags.avg_refs                        0                       # Average number of references to valid blocks.
system.iocache.tags.warmup_cycle         3235979616000                       # Cycle when the warmup percentage was hit.
system.iocache.tags.occ_blocks::realview.ide    15.953813                       # Average occupied blocks per requestor
system.iocache.tags.occ_percent::realview.ide     0.997113                       # Average percentage of cache occupancy
system.iocache.tags.occ_percent::total       0.997113                       # Average percentage of cache occupancy
system.iocache.tags.occ_task_id_blocks::1023           16                       # Occupied blocks per task id
system.iocache.tags.age_task_id_blocks_1023::3           16                       # Occupied blocks per task id
system.iocache.tags.occ_task_id_percent::1023            1                       # Percentage of cache occupancy per task id
system.iocache.tags.tag_accesses               728701                       # Number of tag accesses
system.iocache.tags.data_accesses              728701                       # Number of data accesses
system.iocache.WriteInvalidateReq_hits::realview.ide        79856                       # number of WriteInvalidateReq hits
system.iocache.WriteInvalidateReq_hits::total        79856                       # number of WriteInvalidateReq hits
system.iocache.ReadReq_misses::realview.ide          605                       # number of ReadReq misses
system.iocache.ReadReq_misses::total              605                       # number of ReadReq misses
system.iocache.WriteInvalidateReq_misses::realview.ide          569                       # number of WriteInvalidateReq misses
system.iocache.WriteInvalidateReq_misses::total          569                       # number of WriteInvalidateReq misses
system.iocache.demand_misses::realview.ide          605                       # number of demand (read+write) misses
system.iocache.demand_misses::total               605                       # number of demand (read+write) misses
system.iocache.overall_misses::realview.ide          605                       # number of overall misses
system.iocache.overall_misses::total              605                       # number of overall misses
system.iocache.ReadReq_miss_latency::realview.ide     67064126                       # number of ReadReq miss cycles
system.iocache.ReadReq_miss_latency::total     67064126                       # number of ReadReq miss cycles
system.iocache.demand_miss_latency::realview.ide     67064126                       # number of demand (read+write) miss cycles
system.iocache.demand_miss_latency::total     67064126                       # number of demand (read+write) miss cycles
system.iocache.overall_miss_latency::realview.ide     67064126                       # number of overall miss cycles
system.iocache.overall_miss_latency::total     67064126                       # number of overall miss cycles
system.iocache.ReadReq_accesses::realview.ide          605                       # number of ReadReq accesses(hits+misses)
system.iocache.ReadReq_accesses::total            605                       # number of ReadReq accesses(hits+misses)
system.iocache.WriteInvalidateReq_accesses::realview.ide        80425                       # number of WriteInvalidateReq accesses(hits+misses)
system.iocache.WriteInvalidateReq_accesses::total        80425                       # number of WriteInvalidateReq accesses(hits+misses)
system.iocache.demand_accesses::realview.ide          605                       # number of demand (read+write) accesses
system.iocache.demand_accesses::total             605                       # number of demand (read+write) accesses
system.iocache.overall_accesses::realview.ide          605                       # number of overall (read+write) accesses
system.iocache.overall_accesses::total            605                       # number of overall (read+write) accesses
system.iocache.ReadReq_miss_rate::realview.ide            1                       # miss rate for ReadReq accesses
system.iocache.ReadReq_miss_rate::total             1                       # miss rate for ReadReq accesses
system.iocache.WriteInvalidateReq_miss_rate::realview.ide     0.007075                       # miss rate for WriteInvalidateReq accesses
system.iocache.WriteInvalidateReq_miss_rate::total     0.007075                       # miss rate for WriteInvalidateReq accesses
system.iocache.demand_miss_rate::realview.ide            1                       # miss rate for demand accesses
system.iocache.demand_miss_rate::total              1                       # miss rate for demand accesses
system.iocache.overall_miss_rate::realview.ide            1                       # miss rate for overall accesses
system.iocache.overall_miss_rate::total             1                       # miss rate for overall accesses
system.iocache.ReadReq_avg_miss_latency::realview.ide 110849.795041                       # average ReadReq miss latency
system.iocache.ReadReq_avg_miss_latency::total 110849.795041                       # average ReadReq miss latency
system.iocache.demand_avg_miss_latency::realview.ide 110849.795041                       # average overall miss latency
system.iocache.demand_avg_miss_latency::total 110849.795041                       # average overall miss latency
system.iocache.overall_avg_miss_latency::realview.ide 110849.795041                       # average overall miss latency
system.iocache.overall_avg_miss_latency::total 110849.795041                       # average overall miss latency
system.iocache.blocked_cycles::no_mshrs             0                       # number of cycles access was blocked
system.iocache.blocked_cycles::no_targets            0                       # number of cycles access was blocked
system.iocache.blocked::no_mshrs                    0                       # number of cycles access was blocked
system.iocache.blocked::no_targets                  0                       # number of cycles access was blocked
system.iocache.avg_blocked_cycles::no_mshrs          nan                       # average number of cycles each access was blocked
system.iocache.avg_blocked_cycles::no_targets          nan                       # average number of cycles each access was blocked
system.iocache.fast_writes                      79856                       # number of fast writes performed
system.iocache.cache_copies                         0                       # number of cache copies performed
system.iocache.ReadReq_mshr_misses::realview.ide          605                       # number of ReadReq MSHR misses
system.iocache.ReadReq_mshr_misses::total          605                       # number of ReadReq MSHR misses
system.iocache.WriteInvalidateReq_mshr_misses::realview.ide        79856                       # number of WriteInvalidateReq MSHR misses
system.iocache.WriteInvalidateReq_mshr_misses::total        79856                       # number of WriteInvalidateReq MSHR misses
system.iocache.demand_mshr_misses::realview.ide          605                       # number of demand (read+write) MSHR misses
system.iocache.demand_mshr_misses::total          605                       # number of demand (read+write) MSHR misses
system.iocache.overall_mshr_misses::realview.ide          605                       # number of overall MSHR misses
system.iocache.overall_mshr_misses::total          605                       # number of overall MSHR misses
system.iocache.ReadReq_mshr_miss_latency::realview.ide     35592634                       # number of ReadReq MSHR miss cycles
system.iocache.ReadReq_mshr_miss_latency::total     35592634                       # number of ReadReq MSHR miss cycles
system.iocache.WriteInvalidateReq_mshr_miss_latency::realview.ide   6363005710                       # number of WriteInvalidateReq MSHR miss cycles
system.iocache.WriteInvalidateReq_mshr_miss_latency::total   6363005710                       # number of WriteInvalidateReq MSHR miss cycles
system.iocache.demand_mshr_miss_latency::realview.ide     35592634                       # number of demand (read+write) MSHR miss cycles
system.iocache.demand_mshr_miss_latency::total     35592634                       # number of demand (read+write) MSHR miss cycles
system.iocache.overall_mshr_miss_latency::realview.ide     35592634                       # number of overall MSHR miss cycles
system.iocache.overall_mshr_miss_latency::total     35592634                       # number of overall MSHR miss cycles
system.iocache.ReadReq_mshr_miss_rate::realview.ide            1                       # mshr miss rate for ReadReq accesses
system.iocache.ReadReq_mshr_miss_rate::total            1                       # mshr miss rate for ReadReq accesses
system.iocache.WriteInvalidateReq_mshr_miss_rate::realview.ide     0.992925                       # mshr miss rate for WriteInvalidateReq accesses
system.iocache.WriteInvalidateReq_mshr_miss_rate::total     0.992925                       # mshr miss rate for WriteInvalidateReq accesses
system.iocache.demand_mshr_miss_rate::realview.ide            1                       # mshr miss rate for demand accesses
system.iocache.demand_mshr_miss_rate::total            1                       # mshr miss rate for demand accesses
system.iocache.overall_mshr_miss_rate::realview.ide            1                       # mshr miss rate for overall accesses
system.iocache.overall_mshr_miss_rate::total            1                       # mshr miss rate for overall accesses
system.iocache.ReadReq_avg_mshr_miss_latency::realview.ide 58830.800000                       # average ReadReq mshr miss latency
system.iocache.ReadReq_avg_mshr_miss_latency::total 58830.800000                       # average ReadReq mshr miss latency
system.iocache.WriteInvalidateReq_avg_mshr_miss_latency::realview.ide 79680.997170                       # average WriteInvalidateReq mshr miss latency
system.iocache.WriteInvalidateReq_avg_mshr_miss_latency::total 79680.997170                       # average WriteInvalidateReq mshr miss latency
system.iocache.demand_avg_mshr_miss_latency::realview.ide 58830.800000                       # average overall mshr miss latency
system.iocache.demand_avg_mshr_miss_latency::total 58830.800000                       # average overall mshr miss latency
system.iocache.overall_avg_mshr_miss_latency::realview.ide 58830.800000                       # average overall mshr miss latency
system.iocache.overall_avg_mshr_miss_latency::total 58830.800000                       # average overall mshr miss latency
system.iocache.no_allocate_misses                   0                       # Number of misses that were no-allocate
system.switch_cpus0.kern.inst.arm                   0                       # number of arm instructions executed
system.switch_cpus0.kern.inst.quiesce               0                       # number of quiesce instructions executed
system.switch_cpus1.kern.inst.arm                   0                       # number of arm instructions executed
system.switch_cpus1.kern.inst.quiesce               0                       # number of quiesce instructions executed
system.switch_cpus2.kern.inst.arm                   0                       # number of arm instructions executed
system.switch_cpus2.kern.inst.quiesce               0                       # number of quiesce instructions executed
system.switch_cpus3.kern.inst.arm                   0                       # number of arm instructions executed
system.switch_cpus3.kern.inst.quiesce               0                       # number of quiesce instructions executed
system.switch_cpus4.kern.inst.arm                   0                       # number of arm instructions executed
system.switch_cpus4.kern.inst.quiesce               0                       # number of quiesce instructions executed
system.switch_cpus5.kern.inst.arm                   0                       # number of arm instructions executed
system.switch_cpus5.kern.inst.quiesce               0                       # number of quiesce instructions executed
system.switch_cpus6.kern.inst.arm                   0                       # number of arm instructions executed
system.switch_cpus6.kern.inst.quiesce               0                       # number of quiesce instructions executed
system.switch_cpus7.kern.inst.arm                   0                       # number of arm instructions executed
system.switch_cpus7.kern.inst.quiesce               0                       # number of quiesce instructions executed

---------- End Simulation Statistics   ----------
