
---------- Begin Simulation Statistics ----------
sim_seconds                                  0.043909                       # Number of seconds simulated
sim_ticks                                 43908832500                       # Number of ticks simulated
final_tick                               2894010636000                       # Number of ticks from beginning of simulation (restored from checkpoints and never reset)
sim_freq                                 1000000000000                       # Frequency of simulated ticks
host_inst_rate                                 232071                       # Simulator instruction rate (inst/s)
host_op_rate                                   236702                       # Simulator op (including micro ops) rate (op/s)
host_tick_rate                               26447943                       # Simulator tick rate (ticks/s)
host_mem_usage                                1004896                       # Number of bytes of host memory used
host_seconds                                  1660.20                       # Real time elapsed on the host
sim_insts                                   385283455                       # Number of instructions simulated
sim_ops                                     392973066                       # Number of ops (including micro ops) simulated
system.voltage_domain.voltage                       1                       # Voltage in Volts
system.clk_domain.clock                          1000                       # Clock period in ticks
system.realview.vram.bytes_read::realview.clcd      1843200                       # Number of bytes read from this memory
system.realview.vram.bytes_read::total        1843200                       # Number of bytes read from this memory
system.realview.vram.num_reads::realview.clcd       230400                       # Number of read requests responded to by this memory
system.realview.vram.num_reads::total          230400                       # Number of read requests responded to by this memory
system.realview.vram.bw_read::realview.clcd     41977887                       # Total read bandwidth from this memory (bytes/s)
system.realview.vram.bw_read::total          41977887                       # Total read bandwidth from this memory (bytes/s)
system.realview.vram.bw_total::realview.clcd     41977887                       # Total bandwidth to/from this memory (bytes/s)
system.realview.vram.bw_total::total         41977887                       # Total bandwidth to/from this memory (bytes/s)
system.mem_ctrls.bytes_read::switch_cpus0.dtb.walker         6976                       # Number of bytes read from this memory
system.mem_ctrls.bytes_read::switch_cpus0.itb.walker         3264                       # Number of bytes read from this memory
system.mem_ctrls.bytes_read::switch_cpus0.inst       166400                       # Number of bytes read from this memory
system.mem_ctrls.bytes_read::switch_cpus0.data       738880                       # Number of bytes read from this memory
system.mem_ctrls.bytes_read::switch_cpus1.dtb.walker         7296                       # Number of bytes read from this memory
system.mem_ctrls.bytes_read::switch_cpus1.itb.walker         2752                       # Number of bytes read from this memory
system.mem_ctrls.bytes_read::switch_cpus1.inst        48256                       # Number of bytes read from this memory
system.mem_ctrls.bytes_read::switch_cpus1.data       720576                       # Number of bytes read from this memory
system.mem_ctrls.bytes_read::switch_cpus2.dtb.walker         3712                       # Number of bytes read from this memory
system.mem_ctrls.bytes_read::switch_cpus2.itb.walker         2688                       # Number of bytes read from this memory
system.mem_ctrls.bytes_read::switch_cpus2.inst        71808                       # Number of bytes read from this memory
system.mem_ctrls.bytes_read::switch_cpus2.data       636352                       # Number of bytes read from this memory
system.mem_ctrls.bytes_read::switch_cpus3.dtb.walker         1856                       # Number of bytes read from this memory
system.mem_ctrls.bytes_read::switch_cpus3.itb.walker          512                       # Number of bytes read from this memory
system.mem_ctrls.bytes_read::switch_cpus3.inst        22848                       # Number of bytes read from this memory
system.mem_ctrls.bytes_read::switch_cpus3.data       369664                       # Number of bytes read from this memory
system.mem_ctrls.bytes_read::l2.prefetcher      4346304                       # Number of bytes read from this memory
system.mem_ctrls.bytes_read::cpu0.inst            320                       # Number of bytes read from this memory
system.mem_ctrls.bytes_read::cpu0.data            192                       # Number of bytes read from this memory
system.mem_ctrls.bytes_read::total            7150656                       # Number of bytes read from this memory
system.mem_ctrls.bytes_inst_read::switch_cpus0.inst       166400                       # Number of instructions bytes read from this memory
system.mem_ctrls.bytes_inst_read::switch_cpus1.inst        48256                       # Number of instructions bytes read from this memory
system.mem_ctrls.bytes_inst_read::switch_cpus2.inst        71808                       # Number of instructions bytes read from this memory
system.mem_ctrls.bytes_inst_read::switch_cpus3.inst        22848                       # Number of instructions bytes read from this memory
system.mem_ctrls.bytes_inst_read::cpu0.inst          320                       # Number of instructions bytes read from this memory
system.mem_ctrls.bytes_inst_read::total        309632                       # Number of instructions bytes read from this memory
system.mem_ctrls.bytes_written::writebacks      1976064                       # Number of bytes written to this memory
system.mem_ctrls.bytes_written::realview.ide         8192                       # Number of bytes written to this memory
system.mem_ctrls.bytes_written::total         1984256                       # Number of bytes written to this memory
system.mem_ctrls.num_reads::switch_cpus0.dtb.walker          109                       # Number of read requests responded to by this memory
system.mem_ctrls.num_reads::switch_cpus0.itb.walker           51                       # Number of read requests responded to by this memory
system.mem_ctrls.num_reads::switch_cpus0.inst         2600                       # Number of read requests responded to by this memory
system.mem_ctrls.num_reads::switch_cpus0.data        11545                       # Number of read requests responded to by this memory
system.mem_ctrls.num_reads::switch_cpus1.dtb.walker          114                       # Number of read requests responded to by this memory
system.mem_ctrls.num_reads::switch_cpus1.itb.walker           43                       # Number of read requests responded to by this memory
system.mem_ctrls.num_reads::switch_cpus1.inst          754                       # Number of read requests responded to by this memory
system.mem_ctrls.num_reads::switch_cpus1.data        11259                       # Number of read requests responded to by this memory
system.mem_ctrls.num_reads::switch_cpus2.dtb.walker           58                       # Number of read requests responded to by this memory
system.mem_ctrls.num_reads::switch_cpus2.itb.walker           42                       # Number of read requests responded to by this memory
system.mem_ctrls.num_reads::switch_cpus2.inst         1122                       # Number of read requests responded to by this memory
system.mem_ctrls.num_reads::switch_cpus2.data         9943                       # Number of read requests responded to by this memory
system.mem_ctrls.num_reads::switch_cpus3.dtb.walker           29                       # Number of read requests responded to by this memory
system.mem_ctrls.num_reads::switch_cpus3.itb.walker            8                       # Number of read requests responded to by this memory
system.mem_ctrls.num_reads::switch_cpus3.inst          357                       # Number of read requests responded to by this memory
system.mem_ctrls.num_reads::switch_cpus3.data         5776                       # Number of read requests responded to by this memory
system.mem_ctrls.num_reads::l2.prefetcher        67911                       # Number of read requests responded to by this memory
system.mem_ctrls.num_reads::cpu0.inst               5                       # Number of read requests responded to by this memory
system.mem_ctrls.num_reads::cpu0.data               3                       # Number of read requests responded to by this memory
system.mem_ctrls.num_reads::total              111729                       # Number of read requests responded to by this memory
system.mem_ctrls.num_writes::writebacks         30876                       # Number of write requests responded to by this memory
system.mem_ctrls.num_writes::realview.ide          128                       # Number of write requests responded to by this memory
system.mem_ctrls.num_writes::total              31004                       # Number of write requests responded to by this memory
system.mem_ctrls.bw_read::switch_cpus0.dtb.walker       158875                       # Total read bandwidth from this memory (bytes/s)
system.mem_ctrls.bw_read::switch_cpus0.itb.walker        74336                       # Total read bandwidth from this memory (bytes/s)
system.mem_ctrls.bw_read::switch_cpus0.inst      3789670                       # Total read bandwidth from this memory (bytes/s)
system.mem_ctrls.bw_read::switch_cpus0.data     16827594                       # Total read bandwidth from this memory (bytes/s)
system.mem_ctrls.bw_read::switch_cpus1.dtb.walker       166162                       # Total read bandwidth from this memory (bytes/s)
system.mem_ctrls.bw_read::switch_cpus1.itb.walker        62675                       # Total read bandwidth from this memory (bytes/s)
system.mem_ctrls.bw_read::switch_cpus1.inst      1099004                       # Total read bandwidth from this memory (bytes/s)
system.mem_ctrls.bw_read::switch_cpus1.data     16410730                       # Total read bandwidth from this memory (bytes/s)
system.mem_ctrls.bw_read::switch_cpus2.dtb.walker        84539                       # Total read bandwidth from this memory (bytes/s)
system.mem_ctrls.bw_read::switch_cpus2.itb.walker        61218                       # Total read bandwidth from this memory (bytes/s)
system.mem_ctrls.bw_read::switch_cpus2.inst      1635389                       # Total read bandwidth from this memory (bytes/s)
system.mem_ctrls.bw_read::switch_cpus2.data     14492574                       # Total read bandwidth from this memory (bytes/s)
system.mem_ctrls.bw_read::switch_cpus3.dtb.walker        42269                       # Total read bandwidth from this memory (bytes/s)
system.mem_ctrls.bw_read::switch_cpus3.itb.walker        11661                       # Total read bandwidth from this memory (bytes/s)
system.mem_ctrls.bw_read::switch_cpus3.inst       520351                       # Total read bandwidth from this memory (bytes/s)
system.mem_ctrls.bw_read::switch_cpus3.data      8418898                       # Total read bandwidth from this memory (bytes/s)
system.mem_ctrls.bw_read::l2.prefetcher      98984732                       # Total read bandwidth from this memory (bytes/s)
system.mem_ctrls.bw_read::cpu0.inst              7288                       # Total read bandwidth from this memory (bytes/s)
system.mem_ctrls.bw_read::cpu0.data              4373                       # Total read bandwidth from this memory (bytes/s)
system.mem_ctrls.bw_read::total             162852337                       # Total read bandwidth from this memory (bytes/s)
system.mem_ctrls.bw_inst_read::switch_cpus0.inst      3789670                       # Instruction read bandwidth from this memory (bytes/s)
system.mem_ctrls.bw_inst_read::switch_cpus1.inst      1099004                       # Instruction read bandwidth from this memory (bytes/s)
system.mem_ctrls.bw_inst_read::switch_cpus2.inst      1635389                       # Instruction read bandwidth from this memory (bytes/s)
system.mem_ctrls.bw_inst_read::switch_cpus3.inst       520351                       # Instruction read bandwidth from this memory (bytes/s)
system.mem_ctrls.bw_inst_read::cpu0.inst         7288                       # Instruction read bandwidth from this memory (bytes/s)
system.mem_ctrls.bw_inst_read::total          7051702                       # Instruction read bandwidth from this memory (bytes/s)
system.mem_ctrls.bw_write::writebacks        45003793                       # Write bandwidth from this memory (bytes/s)
system.mem_ctrls.bw_write::realview.ide        186568                       # Write bandwidth from this memory (bytes/s)
system.mem_ctrls.bw_write::total             45190361                       # Write bandwidth from this memory (bytes/s)
system.mem_ctrls.bw_total::writebacks        45003793                       # Total bandwidth to/from this memory (bytes/s)
system.mem_ctrls.bw_total::switch_cpus0.dtb.walker       158875                       # Total bandwidth to/from this memory (bytes/s)
system.mem_ctrls.bw_total::switch_cpus0.itb.walker        74336                       # Total bandwidth to/from this memory (bytes/s)
system.mem_ctrls.bw_total::switch_cpus0.inst      3789670                       # Total bandwidth to/from this memory (bytes/s)
system.mem_ctrls.bw_total::switch_cpus0.data     16827594                       # Total bandwidth to/from this memory (bytes/s)
system.mem_ctrls.bw_total::switch_cpus1.dtb.walker       166162                       # Total bandwidth to/from this memory (bytes/s)
system.mem_ctrls.bw_total::switch_cpus1.itb.walker        62675                       # Total bandwidth to/from this memory (bytes/s)
system.mem_ctrls.bw_total::switch_cpus1.inst      1099004                       # Total bandwidth to/from this memory (bytes/s)
system.mem_ctrls.bw_total::switch_cpus1.data     16410730                       # Total bandwidth to/from this memory (bytes/s)
system.mem_ctrls.bw_total::switch_cpus2.dtb.walker        84539                       # Total bandwidth to/from this memory (bytes/s)
system.mem_ctrls.bw_total::switch_cpus2.itb.walker        61218                       # Total bandwidth to/from this memory (bytes/s)
system.mem_ctrls.bw_total::switch_cpus2.inst      1635389                       # Total bandwidth to/from this memory (bytes/s)
system.mem_ctrls.bw_total::switch_cpus2.data     14492574                       # Total bandwidth to/from this memory (bytes/s)
system.mem_ctrls.bw_total::switch_cpus3.dtb.walker        42269                       # Total bandwidth to/from this memory (bytes/s)
system.mem_ctrls.bw_total::switch_cpus3.itb.walker        11661                       # Total bandwidth to/from this memory (bytes/s)
system.mem_ctrls.bw_total::switch_cpus3.inst       520351                       # Total bandwidth to/from this memory (bytes/s)
system.mem_ctrls.bw_total::switch_cpus3.data      8418898                       # Total bandwidth to/from this memory (bytes/s)
system.mem_ctrls.bw_total::realview.ide        186568                       # Total bandwidth to/from this memory (bytes/s)
system.mem_ctrls.bw_total::l2.prefetcher     98984732                       # Total bandwidth to/from this memory (bytes/s)
system.mem_ctrls.bw_total::cpu0.inst             7288                       # Total bandwidth to/from this memory (bytes/s)
system.mem_ctrls.bw_total::cpu0.data             4373                       # Total bandwidth to/from this memory (bytes/s)
system.mem_ctrls.bw_total::total            208042698                       # Total bandwidth to/from this memory (bytes/s)
system.mem_ctrls.readReqs                      111721                       # Number of read requests accepted
system.mem_ctrls.writeReqs                      31004                       # Number of write requests accepted
system.mem_ctrls.readBursts                    111721                       # Number of DRAM read bursts, including those serviced by the write queue
system.mem_ctrls.writeBursts                    31004                       # Number of DRAM write bursts, including those merged in the write queue
system.mem_ctrls.bytesReadDRAM                7128512                       # Total number of bytes read from DRAM
system.mem_ctrls.bytesReadWrQ                   21632                       # Total number of bytes read from write queue
system.mem_ctrls.bytesWritten                 1982528                       # Total number of bytes written to DRAM
system.mem_ctrls.bytesReadSys                 7150144                       # Total read bytes from the system interface side
system.mem_ctrls.bytesWrittenSys              1984256                       # Total written bytes from the system interface side
system.mem_ctrls.servicedByWrQ                    338                       # Number of DRAM read bursts serviced by the write queue
system.mem_ctrls.mergedWrBursts                     1                       # Number of DRAM write bursts merged with an existing one
system.mem_ctrls.neitherReadNorWriteReqs         6053                       # Number of requests that are neither read nor write
system.mem_ctrls.perBankRdBursts::0              3807                       # Per bank write bursts
system.mem_ctrls.perBankRdBursts::1              4449                       # Per bank write bursts
system.mem_ctrls.perBankRdBursts::2              5831                       # Per bank write bursts
system.mem_ctrls.perBankRdBursts::3              5433                       # Per bank write bursts
system.mem_ctrls.perBankRdBursts::4              4571                       # Per bank write bursts
system.mem_ctrls.perBankRdBursts::5              5412                       # Per bank write bursts
system.mem_ctrls.perBankRdBursts::6              8352                       # Per bank write bursts
system.mem_ctrls.perBankRdBursts::7              8227                       # Per bank write bursts
system.mem_ctrls.perBankRdBursts::8              6213                       # Per bank write bursts
system.mem_ctrls.perBankRdBursts::9              8754                       # Per bank write bursts
system.mem_ctrls.perBankRdBursts::10             9865                       # Per bank write bursts
system.mem_ctrls.perBankRdBursts::11            10456                       # Per bank write bursts
system.mem_ctrls.perBankRdBursts::12            10176                       # Per bank write bursts
system.mem_ctrls.perBankRdBursts::13             6877                       # Per bank write bursts
system.mem_ctrls.perBankRdBursts::14             5795                       # Per bank write bursts
system.mem_ctrls.perBankRdBursts::15             7165                       # Per bank write bursts
system.mem_ctrls.perBankWrBursts::0               928                       # Per bank write bursts
system.mem_ctrls.perBankWrBursts::1              1340                       # Per bank write bursts
system.mem_ctrls.perBankWrBursts::2              1545                       # Per bank write bursts
system.mem_ctrls.perBankWrBursts::3              1093                       # Per bank write bursts
system.mem_ctrls.perBankWrBursts::4               827                       # Per bank write bursts
system.mem_ctrls.perBankWrBursts::5              1217                       # Per bank write bursts
system.mem_ctrls.perBankWrBursts::6              1928                       # Per bank write bursts
system.mem_ctrls.perBankWrBursts::7              2133                       # Per bank write bursts
system.mem_ctrls.perBankWrBursts::8              1606                       # Per bank write bursts
system.mem_ctrls.perBankWrBursts::9              2445                       # Per bank write bursts
system.mem_ctrls.perBankWrBursts::10             3304                       # Per bank write bursts
system.mem_ctrls.perBankWrBursts::11             3052                       # Per bank write bursts
system.mem_ctrls.perBankWrBursts::12             3545                       # Per bank write bursts
system.mem_ctrls.perBankWrBursts::13             2720                       # Per bank write bursts
system.mem_ctrls.perBankWrBursts::14             1487                       # Per bank write bursts
system.mem_ctrls.perBankWrBursts::15             1807                       # Per bank write bursts
system.mem_ctrls.numRdRetry                         0                       # Number of times read queue was full causing retry
system.mem_ctrls.numWrRetry                         0                       # Number of times write queue was full causing retry
system.mem_ctrls.totGap                   43902666000                       # Total gap between requests
system.mem_ctrls.readPktSize::0                     0                       # Read request sizes (log2)
system.mem_ctrls.readPktSize::1                     0                       # Read request sizes (log2)
system.mem_ctrls.readPktSize::2                     0                       # Read request sizes (log2)
system.mem_ctrls.readPktSize::3                     0                       # Read request sizes (log2)
system.mem_ctrls.readPktSize::4                     0                       # Read request sizes (log2)
system.mem_ctrls.readPktSize::5                     0                       # Read request sizes (log2)
system.mem_ctrls.readPktSize::6                111721                       # Read request sizes (log2)
system.mem_ctrls.writePktSize::0                    0                       # Write request sizes (log2)
system.mem_ctrls.writePktSize::1                    0                       # Write request sizes (log2)
system.mem_ctrls.writePktSize::2                    0                       # Write request sizes (log2)
system.mem_ctrls.writePktSize::3                    0                       # Write request sizes (log2)
system.mem_ctrls.writePktSize::4                    0                       # Write request sizes (log2)
system.mem_ctrls.writePktSize::5                    0                       # Write request sizes (log2)
system.mem_ctrls.writePktSize::6                31004                       # Write request sizes (log2)
system.mem_ctrls.rdQLenPdf::0                   48246                       # What read queue length does an incoming req see
system.mem_ctrls.rdQLenPdf::1                   30318                       # What read queue length does an incoming req see
system.mem_ctrls.rdQLenPdf::2                   10146                       # What read queue length does an incoming req see
system.mem_ctrls.rdQLenPdf::3                    6556                       # What read queue length does an incoming req see
system.mem_ctrls.rdQLenPdf::4                    4187                       # What read queue length does an incoming req see
system.mem_ctrls.rdQLenPdf::5                    3254                       # What read queue length does an incoming req see
system.mem_ctrls.rdQLenPdf::6                    2646                       # What read queue length does an incoming req see
system.mem_ctrls.rdQLenPdf::7                    2185                       # What read queue length does an incoming req see
system.mem_ctrls.rdQLenPdf::8                    1907                       # What read queue length does an incoming req see
system.mem_ctrls.rdQLenPdf::9                     735                       # What read queue length does an incoming req see
system.mem_ctrls.rdQLenPdf::10                    449                       # What read queue length does an incoming req see
system.mem_ctrls.rdQLenPdf::11                    316                       # What read queue length does an incoming req see
system.mem_ctrls.rdQLenPdf::12                    166                       # What read queue length does an incoming req see
system.mem_ctrls.rdQLenPdf::13                    123                       # What read queue length does an incoming req see
system.mem_ctrls.rdQLenPdf::14                     86                       # What read queue length does an incoming req see
system.mem_ctrls.rdQLenPdf::15                     63                       # What read queue length does an incoming req see
system.mem_ctrls.rdQLenPdf::16                      0                       # What read queue length does an incoming req see
system.mem_ctrls.rdQLenPdf::17                      0                       # What read queue length does an incoming req see
system.mem_ctrls.rdQLenPdf::18                      0                       # What read queue length does an incoming req see
system.mem_ctrls.rdQLenPdf::19                      0                       # What read queue length does an incoming req see
system.mem_ctrls.rdQLenPdf::20                      0                       # What read queue length does an incoming req see
system.mem_ctrls.rdQLenPdf::21                      0                       # What read queue length does an incoming req see
system.mem_ctrls.rdQLenPdf::22                      0                       # What read queue length does an incoming req see
system.mem_ctrls.rdQLenPdf::23                      0                       # What read queue length does an incoming req see
system.mem_ctrls.rdQLenPdf::24                      0                       # What read queue length does an incoming req see
system.mem_ctrls.rdQLenPdf::25                      0                       # What read queue length does an incoming req see
system.mem_ctrls.rdQLenPdf::26                      0                       # What read queue length does an incoming req see
system.mem_ctrls.rdQLenPdf::27                      0                       # What read queue length does an incoming req see
system.mem_ctrls.rdQLenPdf::28                      0                       # What read queue length does an incoming req see
system.mem_ctrls.rdQLenPdf::29                      0                       # What read queue length does an incoming req see
system.mem_ctrls.rdQLenPdf::30                      0                       # What read queue length does an incoming req see
system.mem_ctrls.rdQLenPdf::31                      0                       # What read queue length does an incoming req see
system.mem_ctrls.wrQLenPdf::0                       1                       # What write queue length does an incoming req see
system.mem_ctrls.wrQLenPdf::1                       1                       # What write queue length does an incoming req see
system.mem_ctrls.wrQLenPdf::2                       1                       # What write queue length does an incoming req see
system.mem_ctrls.wrQLenPdf::3                       1                       # What write queue length does an incoming req see
system.mem_ctrls.wrQLenPdf::4                       1                       # What write queue length does an incoming req see
system.mem_ctrls.wrQLenPdf::5                       1                       # What write queue length does an incoming req see
system.mem_ctrls.wrQLenPdf::6                       1                       # What write queue length does an incoming req see
system.mem_ctrls.wrQLenPdf::7                       1                       # What write queue length does an incoming req see
system.mem_ctrls.wrQLenPdf::8                       1                       # What write queue length does an incoming req see
system.mem_ctrls.wrQLenPdf::9                       1                       # What write queue length does an incoming req see
system.mem_ctrls.wrQLenPdf::10                      1                       # What write queue length does an incoming req see
system.mem_ctrls.wrQLenPdf::11                      1                       # What write queue length does an incoming req see
system.mem_ctrls.wrQLenPdf::12                      1                       # What write queue length does an incoming req see
system.mem_ctrls.wrQLenPdf::13                      1                       # What write queue length does an incoming req see
system.mem_ctrls.wrQLenPdf::14                      1                       # What write queue length does an incoming req see
system.mem_ctrls.wrQLenPdf::15                    783                       # What write queue length does an incoming req see
system.mem_ctrls.wrQLenPdf::16                    819                       # What write queue length does an incoming req see
system.mem_ctrls.wrQLenPdf::17                   1330                       # What write queue length does an incoming req see
system.mem_ctrls.wrQLenPdf::18                   1573                       # What write queue length does an incoming req see
system.mem_ctrls.wrQLenPdf::19                   1720                       # What write queue length does an incoming req see
system.mem_ctrls.wrQLenPdf::20                   1783                       # What write queue length does an incoming req see
system.mem_ctrls.wrQLenPdf::21                   1829                       # What write queue length does an incoming req see
system.mem_ctrls.wrQLenPdf::22                   1863                       # What write queue length does an incoming req see
system.mem_ctrls.wrQLenPdf::23                   1906                       # What write queue length does an incoming req see
system.mem_ctrls.wrQLenPdf::24                   1928                       # What write queue length does an incoming req see
system.mem_ctrls.wrQLenPdf::25                   1932                       # What write queue length does an incoming req see
system.mem_ctrls.wrQLenPdf::26                   1949                       # What write queue length does an incoming req see
system.mem_ctrls.wrQLenPdf::27                   1979                       # What write queue length does an incoming req see
system.mem_ctrls.wrQLenPdf::28                   2036                       # What write queue length does an incoming req see
system.mem_ctrls.wrQLenPdf::29                   1913                       # What write queue length does an incoming req see
system.mem_ctrls.wrQLenPdf::30                   1892                       # What write queue length does an incoming req see
system.mem_ctrls.wrQLenPdf::31                   1881                       # What write queue length does an incoming req see
system.mem_ctrls.wrQLenPdf::32                   1834                       # What write queue length does an incoming req see
system.mem_ctrls.wrQLenPdf::33                     14                       # What write queue length does an incoming req see
system.mem_ctrls.wrQLenPdf::34                      7                       # What write queue length does an incoming req see
system.mem_ctrls.wrQLenPdf::35                      5                       # What write queue length does an incoming req see
system.mem_ctrls.wrQLenPdf::36                      3                       # What write queue length does an incoming req see
system.mem_ctrls.wrQLenPdf::37                      4                       # What write queue length does an incoming req see
system.mem_ctrls.wrQLenPdf::38                      2                       # What write queue length does an incoming req see
system.mem_ctrls.wrQLenPdf::39                      2                       # What write queue length does an incoming req see
system.mem_ctrls.wrQLenPdf::40                      1                       # What write queue length does an incoming req see
system.mem_ctrls.wrQLenPdf::41                      0                       # What write queue length does an incoming req see
system.mem_ctrls.wrQLenPdf::42                      0                       # What write queue length does an incoming req see
system.mem_ctrls.wrQLenPdf::43                      0                       # What write queue length does an incoming req see
system.mem_ctrls.wrQLenPdf::44                      0                       # What write queue length does an incoming req see
system.mem_ctrls.wrQLenPdf::45                      0                       # What write queue length does an incoming req see
system.mem_ctrls.wrQLenPdf::46                      0                       # What write queue length does an incoming req see
system.mem_ctrls.wrQLenPdf::47                      0                       # What write queue length does an incoming req see
system.mem_ctrls.wrQLenPdf::48                      0                       # What write queue length does an incoming req see
system.mem_ctrls.wrQLenPdf::49                      0                       # What write queue length does an incoming req see
system.mem_ctrls.wrQLenPdf::50                      0                       # What write queue length does an incoming req see
system.mem_ctrls.wrQLenPdf::51                      0                       # What write queue length does an incoming req see
system.mem_ctrls.wrQLenPdf::52                      0                       # What write queue length does an incoming req see
system.mem_ctrls.wrQLenPdf::53                      0                       # What write queue length does an incoming req see
system.mem_ctrls.wrQLenPdf::54                      0                       # What write queue length does an incoming req see
system.mem_ctrls.wrQLenPdf::55                      0                       # What write queue length does an incoming req see
system.mem_ctrls.wrQLenPdf::56                      0                       # What write queue length does an incoming req see
system.mem_ctrls.wrQLenPdf::57                      0                       # What write queue length does an incoming req see
system.mem_ctrls.wrQLenPdf::58                      0                       # What write queue length does an incoming req see
system.mem_ctrls.wrQLenPdf::59                      0                       # What write queue length does an incoming req see
system.mem_ctrls.wrQLenPdf::60                      0                       # What write queue length does an incoming req see
system.mem_ctrls.wrQLenPdf::61                      0                       # What write queue length does an incoming req see
system.mem_ctrls.wrQLenPdf::62                      0                       # What write queue length does an incoming req see
system.mem_ctrls.wrQLenPdf::63                      0                       # What write queue length does an incoming req see
system.mem_ctrls.bytesPerActivate::samples        60659                       # Bytes accessed per row activation
system.mem_ctrls.bytesPerActivate::mean    150.200959                       # Bytes accessed per row activation
system.mem_ctrls.bytesPerActivate::gmean    99.831830                       # Bytes accessed per row activation
system.mem_ctrls.bytesPerActivate::stdev   205.444050                       # Bytes accessed per row activation
system.mem_ctrls.bytesPerActivate::0-127        39705     65.46%     65.46% # Bytes accessed per row activation
system.mem_ctrls.bytesPerActivate::128-255        12950     21.35%     86.80% # Bytes accessed per row activation
system.mem_ctrls.bytesPerActivate::256-383         2757      4.55%     91.35% # Bytes accessed per row activation
system.mem_ctrls.bytesPerActivate::384-511         1149      1.89%     93.24% # Bytes accessed per row activation
system.mem_ctrls.bytesPerActivate::512-639          880      1.45%     94.69% # Bytes accessed per row activation
system.mem_ctrls.bytesPerActivate::640-767          614      1.01%     95.71% # Bytes accessed per row activation
system.mem_ctrls.bytesPerActivate::768-895          349      0.58%     96.28% # Bytes accessed per row activation
system.mem_ctrls.bytesPerActivate::896-1023          288      0.47%     96.76% # Bytes accessed per row activation
system.mem_ctrls.bytesPerActivate::1024-1151         1967      3.24%    100.00% # Bytes accessed per row activation
system.mem_ctrls.bytesPerActivate::total        60659                       # Bytes accessed per row activation
system.mem_ctrls.rdPerTurnAround::samples         1820                       # Reads before turning the bus around for writes
system.mem_ctrls.rdPerTurnAround::mean      61.181319                       # Reads before turning the bus around for writes
system.mem_ctrls.rdPerTurnAround::gmean     44.179949                       # Reads before turning the bus around for writes
system.mem_ctrls.rdPerTurnAround::stdev    382.786478                       # Reads before turning the bus around for writes
system.mem_ctrls.rdPerTurnAround::0-511          1813     99.62%     99.62% # Reads before turning the bus around for writes
system.mem_ctrls.rdPerTurnAround::512-1023            4      0.22%     99.84% # Reads before turning the bus around for writes
system.mem_ctrls.rdPerTurnAround::1536-2047            1      0.05%     99.89% # Reads before turning the bus around for writes
system.mem_ctrls.rdPerTurnAround::3584-4095            1      0.05%     99.95% # Reads before turning the bus around for writes
system.mem_ctrls.rdPerTurnAround::15360-15871            1      0.05%    100.00% # Reads before turning the bus around for writes
system.mem_ctrls.rdPerTurnAround::total          1820                       # Reads before turning the bus around for writes
system.mem_ctrls.wrPerTurnAround::samples         1820                       # Writes before turning the bus around for reads
system.mem_ctrls.wrPerTurnAround::mean      17.020330                       # Writes before turning the bus around for reads
system.mem_ctrls.wrPerTurnAround::gmean     16.976670                       # Writes before turning the bus around for reads
system.mem_ctrls.wrPerTurnAround::stdev      1.260524                       # Writes before turning the bus around for reads
system.mem_ctrls.wrPerTurnAround::16              989     54.34%     54.34% # Writes before turning the bus around for reads
system.mem_ctrls.wrPerTurnAround::17               29      1.59%     55.93% # Writes before turning the bus around for reads
system.mem_ctrls.wrPerTurnAround::18              663     36.43%     92.36% # Writes before turning the bus around for reads
system.mem_ctrls.wrPerTurnAround::19               93      5.11%     97.47% # Writes before turning the bus around for reads
system.mem_ctrls.wrPerTurnAround::20               29      1.59%     99.07% # Writes before turning the bus around for reads
system.mem_ctrls.wrPerTurnAround::21                8      0.44%     99.51% # Writes before turning the bus around for reads
system.mem_ctrls.wrPerTurnAround::22                6      0.33%     99.84% # Writes before turning the bus around for reads
system.mem_ctrls.wrPerTurnAround::23                2      0.11%     99.95% # Writes before turning the bus around for reads
system.mem_ctrls.wrPerTurnAround::33                1      0.05%    100.00% # Writes before turning the bus around for reads
system.mem_ctrls.wrPerTurnAround::total          1820                       # Writes before turning the bus around for reads
system.mem_ctrls.totQLat                   2687182239                       # Total ticks spent queuing
system.mem_ctrls.totMemAccLat              4775613489                       # Total ticks spent from burst creation until serviced by the DRAM
system.mem_ctrls.totBusLat                  556915000                       # Total ticks spent in databus transfers
system.mem_ctrls.avgQLat                     24125.60                       # Average queueing delay per DRAM burst
system.mem_ctrls.avgBusLat                    5000.00                       # Average bus latency per DRAM burst
system.mem_ctrls.avgMemAccLat                42875.60                       # Average memory access latency per DRAM burst
system.mem_ctrls.avgRdBW                       162.35                       # Average DRAM read bandwidth in MiByte/s
system.mem_ctrls.avgWrBW                        45.15                       # Average achieved write bandwidth in MiByte/s
system.mem_ctrls.avgRdBWSys                    162.84                       # Average system read bandwidth in MiByte/s
system.mem_ctrls.avgWrBWSys                     45.19                       # Average system write bandwidth in MiByte/s
system.mem_ctrls.peakBW                      12800.00                       # Theoretical peak bandwidth in MiByte/s
system.mem_ctrls.busUtil                         1.62                       # Data bus utilization in percentage
system.mem_ctrls.busUtilRead                     1.27                       # Data bus utilization in percentage for reads
system.mem_ctrls.busUtilWrite                    0.35                       # Data bus utilization in percentage for writes
system.mem_ctrls.avgRdQLen                       1.31                       # Average read queue length when enqueuing
system.mem_ctrls.avgWrQLen                      22.10                       # Average write queue length when enqueuing
system.mem_ctrls.readRowHits                    73207                       # Number of row buffer hits during reads
system.mem_ctrls.writeRowHits                    8494                       # Number of row buffer hits during writes
system.mem_ctrls.readRowHitRate                 65.73                       # Row buffer hit rate for reads
system.mem_ctrls.writeRowHitRate                27.40                       # Row buffer hit rate for writes
system.mem_ctrls.avgGap                     307603.19                       # Average gap between requests
system.mem_ctrls.pageHitRate                    57.38                       # Row buffer hit rate, read and write combined
system.mem_ctrls.memoryStateTime::IDLE    15768463505                       # Time in different power states
system.mem_ctrls.memoryStateTime::REF      1466140000                       # Time in different power states
system.mem_ctrls.memoryStateTime::PRE_PDN            0                       # Time in different power states
system.mem_ctrls.memoryStateTime::ACT     26672333995                       # Time in different power states
system.mem_ctrls.memoryStateTime::ACT_PDN            0                       # Time in different power states
system.mem_ctrls.actEnergy::0               183042720                       # Energy for activate commands per rank (pJ)
system.mem_ctrls.actEnergy::1               275539320                       # Energy for activate commands per rank (pJ)
system.mem_ctrls.preEnergy::0                99874500                       # Energy for precharge commands per rank (pJ)
system.mem_ctrls.preEnergy::1               150343875                       # Energy for precharge commands per rank (pJ)
system.mem_ctrls.readEnergy::0              359439600                       # Energy for read commands per rank (pJ)
system.mem_ctrls.readEnergy::1              509347800                       # Energy for read commands per rank (pJ)
system.mem_ctrls.writeEnergy::0              71351280                       # Energy for write commands per rank (pJ)
system.mem_ctrls.writeEnergy::1             129379680                       # Energy for write commands per rank (pJ)
system.mem_ctrls.refreshEnergy::0          2867769840                       # Energy for refresh commands per rank (pJ)
system.mem_ctrls.refreshEnergy::1          2867769840                       # Energy for refresh commands per rank (pJ)
system.mem_ctrls.actBackEnergy::0         13690341225                       # Energy for active background per rank (pJ)
system.mem_ctrls.actBackEnergy::1         16506288855                       # Energy for active background per rank (pJ)
system.mem_ctrls.preBackEnergy::0         14335083000                       # Energy for precharge background per rank (pJ)
system.mem_ctrls.preBackEnergy::1         11864953500                       # Energy for precharge background per rank (pJ)
system.mem_ctrls.totalEnergy::0           31606902165                       # Total energy per rank (pJ)
system.mem_ctrls.totalEnergy::1           32303622870                       # Total energy per rank (pJ)
system.mem_ctrls.averagePower::0           719.861458                       # Core power per rank (mW)
system.mem_ctrls.averagePower::1           735.729587                       # Core power per rank (mW)
system.cpu_voltage_domain.voltage                   1                       # Voltage in Volts
system.cpu_clk_domain.clock                       500                       # Clock period in ticks
system.tol2bus.trans_dist::ReadReq             791323                       # Transaction distribution
system.tol2bus.trans_dist::ReadResp            791320                       # Transaction distribution
system.tol2bus.trans_dist::ReadRespWithInvalidate            3                       # Transaction distribution
system.tol2bus.trans_dist::WriteReq               470                       # Transaction distribution
system.tol2bus.trans_dist::WriteResp              470                       # Transaction distribution
system.tol2bus.trans_dist::Writeback           233628                       # Transaction distribution
system.tol2bus.trans_dist::HardPFReq           112275                       # Transaction distribution
system.tol2bus.trans_dist::HardPFResp               2                       # Transaction distribution
system.tol2bus.trans_dist::WriteInvalidateReq          128                       # Transaction distribution
system.tol2bus.trans_dist::UpgradeReq           12474                       # Transaction distribution
system.tol2bus.trans_dist::SCUpgradeReq          5027                       # Transaction distribution
system.tol2bus.trans_dist::UpgradeResp          17501                       # Transaction distribution
system.tol2bus.trans_dist::SCUpgradeFailReq           22                       # Transaction distribution
system.tol2bus.trans_dist::UpgradeFailResp           22                       # Transaction distribution
system.tol2bus.trans_dist::ReadExReq            77320                       # Transaction distribution
system.tol2bus.trans_dist::ReadExResp           77320                       # Transaction distribution
system.tol2bus.pkt_count_system.cpu0.icache.mem_side::system.l2.cpu_side       271416                       # Packet count per connected master and slave (bytes)
system.tol2bus.pkt_count_system.cpu0.dcache.mem_side::system.l2.cpu_side       411106                       # Packet count per connected master and slave (bytes)
system.tol2bus.pkt_count_system.cpu0.itb.walker.dma::system.l2.cpu_side         9586                       # Packet count per connected master and slave (bytes)
system.tol2bus.pkt_count_system.cpu0.dtb.walker.dma::system.l2.cpu_side        75879                       # Packet count per connected master and slave (bytes)
system.tol2bus.pkt_count_system.cpu1.icache.mem_side::system.l2.cpu_side        54080                       # Packet count per connected master and slave (bytes)
system.tol2bus.pkt_count_system.cpu1.dcache.mem_side::system.l2.cpu_side       266013                       # Packet count per connected master and slave (bytes)
system.tol2bus.pkt_count_system.cpu1.itb.walker.dma::system.l2.cpu_side         2403                       # Packet count per connected master and slave (bytes)
system.tol2bus.pkt_count_system.cpu1.dtb.walker.dma::system.l2.cpu_side        56516                       # Packet count per connected master and slave (bytes)
system.tol2bus.pkt_count_system.cpu2.icache.mem_side::system.l2.cpu_side       110458                       # Packet count per connected master and slave (bytes)
system.tol2bus.pkt_count_system.cpu2.dcache.mem_side::system.l2.cpu_side       316330                       # Packet count per connected master and slave (bytes)
system.tol2bus.pkt_count_system.cpu2.itb.walker.dma::system.l2.cpu_side         5502                       # Packet count per connected master and slave (bytes)
system.tol2bus.pkt_count_system.cpu2.dtb.walker.dma::system.l2.cpu_side        59650                       # Packet count per connected master and slave (bytes)
system.tol2bus.pkt_count_system.cpu3.icache.mem_side::system.l2.cpu_side        45915                       # Packet count per connected master and slave (bytes)
system.tol2bus.pkt_count_system.cpu3.dcache.mem_side::system.l2.cpu_side       199601                       # Packet count per connected master and slave (bytes)
system.tol2bus.pkt_count_system.cpu3.itb.walker.dma::system.l2.cpu_side         2742                       # Packet count per connected master and slave (bytes)
system.tol2bus.pkt_count_system.cpu3.dtb.walker.dma::system.l2.cpu_side        52820                       # Packet count per connected master and slave (bytes)
system.tol2bus.pkt_count::total               1940017                       # Packet count per connected master and slave (bytes)
system.tol2bus.pkt_size_system.cpu0.icache.mem_side::system.l2.cpu_side      8685312                       # Cumulative packet size per connected master and slave (bytes)
system.tol2bus.pkt_size_system.cpu0.dcache.mem_side::system.l2.cpu_side     15163695                       # Cumulative packet size per connected master and slave (bytes)
system.tol2bus.pkt_size_system.cpu0.itb.walker.dma::system.l2.cpu_side        12588                       # Cumulative packet size per connected master and slave (bytes)
system.tol2bus.pkt_size_system.cpu0.dtb.walker.dma::system.l2.cpu_side       131948                       # Cumulative packet size per connected master and slave (bytes)
system.tol2bus.pkt_size_system.cpu1.icache.mem_side::system.l2.cpu_side      1730560                       # Cumulative packet size per connected master and slave (bytes)
system.tol2bus.pkt_size_system.cpu1.dcache.mem_side::system.l2.cpu_side      9764080                       # Cumulative packet size per connected master and slave (bytes)
system.tol2bus.pkt_size_system.cpu1.itb.walker.dma::system.l2.cpu_side         4732                       # Cumulative packet size per connected master and slave (bytes)
system.tol2bus.pkt_size_system.cpu1.dtb.walker.dma::system.l2.cpu_side       112432                       # Cumulative packet size per connected master and slave (bytes)
system.tol2bus.pkt_size_system.cpu2.icache.mem_side::system.l2.cpu_side      3534592                       # Cumulative packet size per connected master and slave (bytes)
system.tol2bus.pkt_size_system.cpu2.dcache.mem_side::system.l2.cpu_side     11665452                       # Cumulative packet size per connected master and slave (bytes)
system.tol2bus.pkt_size_system.cpu2.itb.walker.dma::system.l2.cpu_side         6732                       # Cumulative packet size per connected master and slave (bytes)
system.tol2bus.pkt_size_system.cpu2.dtb.walker.dma::system.l2.cpu_side       111368                       # Cumulative packet size per connected master and slave (bytes)
system.tol2bus.pkt_size_system.cpu3.icache.mem_side::system.l2.cpu_side      1469248                       # Cumulative packet size per connected master and slave (bytes)
system.tol2bus.pkt_size_system.cpu3.dcache.mem_side::system.l2.cpu_side      7107120                       # Cumulative packet size per connected master and slave (bytes)
system.tol2bus.pkt_size_system.cpu3.itb.walker.dma::system.l2.cpu_side         3084                       # Cumulative packet size per connected master and slave (bytes)
system.tol2bus.pkt_size_system.cpu3.dtb.walker.dma::system.l2.cpu_side       101724                       # Cumulative packet size per connected master and slave (bytes)
system.tol2bus.pkt_size::total               59604667                       # Cumulative packet size per connected master and slave (bytes)
system.tol2bus.snoops                          179292                       # Total snoops (count)
system.tol2bus.snoop_fanout::samples          1231233                       # Request fanout histogram
system.tol2bus.snoop_fanout::mean           23.091295                       # Request fanout histogram
system.tol2bus.snoop_fanout::stdev           0.288028                       # Request fanout histogram
system.tol2bus.snoop_fanout::underflows             0      0.00%      0.00% # Request fanout histogram
system.tol2bus.snoop_fanout::0                      0      0.00%      0.00% # Request fanout histogram
system.tol2bus.snoop_fanout::1                      0      0.00%      0.00% # Request fanout histogram
system.tol2bus.snoop_fanout::2                      0      0.00%      0.00% # Request fanout histogram
system.tol2bus.snoop_fanout::3                      0      0.00%      0.00% # Request fanout histogram
system.tol2bus.snoop_fanout::4                      0      0.00%      0.00% # Request fanout histogram
system.tol2bus.snoop_fanout::5                      0      0.00%      0.00% # Request fanout histogram
system.tol2bus.snoop_fanout::6                      0      0.00%      0.00% # Request fanout histogram
system.tol2bus.snoop_fanout::7                      0      0.00%      0.00% # Request fanout histogram
system.tol2bus.snoop_fanout::8                      0      0.00%      0.00% # Request fanout histogram
system.tol2bus.snoop_fanout::9                      0      0.00%      0.00% # Request fanout histogram
system.tol2bus.snoop_fanout::10                     0      0.00%      0.00% # Request fanout histogram
system.tol2bus.snoop_fanout::11                     0      0.00%      0.00% # Request fanout histogram
system.tol2bus.snoop_fanout::12                     0      0.00%      0.00% # Request fanout histogram
system.tol2bus.snoop_fanout::13                     0      0.00%      0.00% # Request fanout histogram
system.tol2bus.snoop_fanout::14                     0      0.00%      0.00% # Request fanout histogram
system.tol2bus.snoop_fanout::15                     0      0.00%      0.00% # Request fanout histogram
system.tol2bus.snoop_fanout::16                     0      0.00%      0.00% # Request fanout histogram
system.tol2bus.snoop_fanout::17                     0      0.00%      0.00% # Request fanout histogram
system.tol2bus.snoop_fanout::18                     0      0.00%      0.00% # Request fanout histogram
system.tol2bus.snoop_fanout::19                     0      0.00%      0.00% # Request fanout histogram
system.tol2bus.snoop_fanout::20                     0      0.00%      0.00% # Request fanout histogram
system.tol2bus.snoop_fanout::21                     0      0.00%      0.00% # Request fanout histogram
system.tol2bus.snoop_fanout::22                     0      0.00%      0.00% # Request fanout histogram
system.tol2bus.snoop_fanout::23               1118828     90.87%     90.87% # Request fanout histogram
system.tol2bus.snoop_fanout::24                112405      9.13%    100.00% # Request fanout histogram
system.tol2bus.snoop_fanout::overflows              0      0.00%    100.00% # Request fanout histogram
system.tol2bus.snoop_fanout::min_value             23                       # Request fanout histogram
system.tol2bus.snoop_fanout::max_value             24                       # Request fanout histogram
system.tol2bus.snoop_fanout::total            1231233                       # Request fanout histogram
system.tol2bus.reqLayer0.occupancy          794615609                       # Layer occupancy (ticks)
system.tol2bus.reqLayer0.utilization              1.8                       # Layer utilization (%)
system.tol2bus.snoopLayer0.occupancy             6000                       # Layer occupancy (ticks)
system.tol2bus.snoopLayer0.utilization            0.0                       # Layer utilization (%)
system.tol2bus.respLayer0.occupancy         204053519                       # Layer occupancy (ticks)
system.tol2bus.respLayer0.utilization             0.5                       # Layer utilization (%)
system.tol2bus.respLayer1.occupancy         252965672                       # Layer occupancy (ticks)
system.tol2bus.respLayer1.utilization             0.6                       # Layer utilization (%)
system.tol2bus.respLayer2.occupancy           6449244                       # Layer occupancy (ticks)
system.tol2bus.respLayer2.utilization             0.0                       # Layer utilization (%)
system.tol2bus.respLayer3.occupancy          42921210                       # Layer occupancy (ticks)
system.tol2bus.respLayer3.utilization             0.1                       # Layer utilization (%)
system.tol2bus.respLayer6.occupancy          40729639                       # Layer occupancy (ticks)
system.tol2bus.respLayer6.utilization             0.1                       # Layer utilization (%)
system.tol2bus.respLayer7.occupancy         163873574                       # Layer occupancy (ticks)
system.tol2bus.respLayer7.utilization             0.4                       # Layer utilization (%)
system.tol2bus.respLayer8.occupancy           1227499                       # Layer occupancy (ticks)
system.tol2bus.respLayer8.utilization             0.0                       # Layer utilization (%)
system.tol2bus.respLayer9.occupancy          28435224                       # Layer occupancy (ticks)
system.tol2bus.respLayer9.utilization             0.1                       # Layer utilization (%)
system.tol2bus.respLayer12.occupancy         83106312                       # Layer occupancy (ticks)
system.tol2bus.respLayer12.utilization            0.2                       # Layer utilization (%)
system.tol2bus.respLayer13.occupancy        194234583                       # Layer occupancy (ticks)
system.tol2bus.respLayer13.utilization            0.4                       # Layer utilization (%)
system.tol2bus.respLayer14.occupancy          3827991                       # Layer occupancy (ticks)
system.tol2bus.respLayer14.utilization            0.0                       # Layer utilization (%)
system.tol2bus.respLayer15.occupancy         31829220                       # Layer occupancy (ticks)
system.tol2bus.respLayer15.utilization            0.1                       # Layer utilization (%)
system.tol2bus.respLayer18.occupancy         34566086                       # Layer occupancy (ticks)
system.tol2bus.respLayer18.utilization            0.1                       # Layer utilization (%)
system.tol2bus.respLayer19.occupancy        127802689                       # Layer occupancy (ticks)
system.tol2bus.respLayer19.utilization            0.3                       # Layer utilization (%)
system.tol2bus.respLayer20.occupancy          1974244                       # Layer occupancy (ticks)
system.tol2bus.respLayer20.utilization            0.0                       # Layer utilization (%)
system.tol2bus.respLayer21.occupancy         27402227                       # Layer occupancy (ticks)
system.tol2bus.respLayer21.utilization            0.1                       # Layer utilization (%)
system.membus.trans_dist::ReadReq              109677                       # Transaction distribution
system.membus.trans_dist::ReadResp             109677                       # Transaction distribution
system.membus.trans_dist::WriteReq                470                       # Transaction distribution
system.membus.trans_dist::WriteResp               470                       # Transaction distribution
system.membus.trans_dist::Writeback             30876                       # Transaction distribution
system.membus.trans_dist::WriteInvalidateReq          128                       # Transaction distribution
system.membus.trans_dist::WriteInvalidateResp          128                       # Transaction distribution
system.membus.trans_dist::UpgradeReq            11893                       # Transaction distribution
system.membus.trans_dist::SCUpgradeReq           4758                       # Transaction distribution
system.membus.trans_dist::UpgradeResp            6053                       # Transaction distribution
system.membus.trans_dist::ReadExReq              3891                       # Transaction distribution
system.membus.trans_dist::ReadExResp             3261                       # Transaction distribution
system.membus.pkt_count_system.iocache.mem_side::system.mem_ctrls.port          258                       # Packet count per connected master and slave (bytes)
system.membus.pkt_count_system.iocache.mem_side::total          258                       # Packet count per connected master and slave (bytes)
system.membus.pkt_count_system.l2.mem_side::system.bridge.slave         1884                       # Packet count per connected master and slave (bytes)
system.membus.pkt_count_system.l2.mem_side::system.realview.gic.pio         1470                       # Packet count per connected master and slave (bytes)
system.membus.pkt_count_system.l2.mem_side::system.mem_ctrls.port       277668                       # Packet count per connected master and slave (bytes)
system.membus.pkt_count_system.l2.mem_side::total       281022                       # Packet count per connected master and slave (bytes)
system.membus.pkt_count::total                 281280                       # Packet count per connected master and slave (bytes)
system.membus.pkt_size_system.iocache.mem_side::system.mem_ctrls.port         8192                       # Cumulative packet size per connected master and slave (bytes)
system.membus.pkt_size_system.iocache.mem_side::total         8192                       # Cumulative packet size per connected master and slave (bytes)
system.membus.pkt_size_system.l2.mem_side::system.bridge.slave         3455                       # Cumulative packet size per connected master and slave (bytes)
system.membus.pkt_size_system.l2.mem_side::system.realview.gic.pio         2940                       # Cumulative packet size per connected master and slave (bytes)
system.membus.pkt_size_system.l2.mem_side::system.mem_ctrls.port      9126720                       # Cumulative packet size per connected master and slave (bytes)
system.membus.pkt_size_system.l2.mem_side::total      9133115                       # Cumulative packet size per connected master and slave (bytes)
system.membus.pkt_size::total                 9141307                       # Cumulative packet size per connected master and slave (bytes)
system.membus.snoops                            11230                       # Total snoops (count)
system.membus.snoop_fanout::samples            160016                       # Request fanout histogram
system.membus.snoop_fanout::mean                    1                       # Request fanout histogram
system.membus.snoop_fanout::stdev                   0                       # Request fanout histogram
system.membus.snoop_fanout::underflows              0      0.00%      0.00% # Request fanout histogram
system.membus.snoop_fanout::0                       0      0.00%      0.00% # Request fanout histogram
system.membus.snoop_fanout::1                  160016    100.00%    100.00% # Request fanout histogram
system.membus.snoop_fanout::2                       0      0.00%    100.00% # Request fanout histogram
system.membus.snoop_fanout::overflows               0      0.00%    100.00% # Request fanout histogram
system.membus.snoop_fanout::min_value               1                       # Request fanout histogram
system.membus.snoop_fanout::max_value               1                       # Request fanout histogram
system.membus.snoop_fanout::total              160016                       # Request fanout histogram
system.membus.reqLayer0.occupancy             1267994                       # Layer occupancy (ticks)
system.membus.reqLayer0.utilization               0.0                       # Layer utilization (%)
system.membus.reqLayer2.occupancy             1270996                       # Layer occupancy (ticks)
system.membus.reqLayer2.utilization               0.0                       # Layer utilization (%)
system.membus.reqLayer5.occupancy           426597310                       # Layer occupancy (ticks)
system.membus.reqLayer5.utilization               1.0                       # Layer utilization (%)
system.membus.respLayer2.occupancy             154991                       # Layer occupancy (ticks)
system.membus.respLayer2.utilization              0.0                       # Layer utilization (%)
system.membus.respLayer3.occupancy         1046911215                       # Layer occupancy (ticks)
system.membus.respLayer3.utilization              2.4                       # Layer utilization (%)
system.switch_cpus0.branchPred.lookups       23259191                       # Number of BP lookups
system.switch_cpus0.branchPred.condPredicted     15455665                       # Number of conditional branches predicted
system.switch_cpus0.branchPred.condIncorrect      1001835                       # Number of conditional branches incorrect
system.switch_cpus0.branchPred.BTBLookups      9941914                       # Number of BTB lookups
system.switch_cpus0.branchPred.BTBHits        8350506                       # Number of BTB hits
system.switch_cpus0.branchPred.BTBCorrect            0                       # Number of correct BTB predictions (this stat may not work properly.
system.switch_cpus0.branchPred.BTBHitPct    83.992941                       # BTB Hit Percentage
system.switch_cpus0.branchPred.usedRAS        3836901                       # Number of times the RAS was used to get a target.
system.switch_cpus0.branchPred.RASInCorrect         5397                       # Number of incorrect RAS predictions.
system.switch_cpus0.dstage2_mmu.stage2_tlb.inst_hits            0                       # ITB inst hits
system.switch_cpus0.dstage2_mmu.stage2_tlb.inst_misses            0                       # ITB inst misses
system.switch_cpus0.dstage2_mmu.stage2_tlb.read_hits            0                       # DTB read hits
system.switch_cpus0.dstage2_mmu.stage2_tlb.read_misses            0                       # DTB read misses
system.switch_cpus0.dstage2_mmu.stage2_tlb.write_hits            0                       # DTB write hits
system.switch_cpus0.dstage2_mmu.stage2_tlb.write_misses            0                       # DTB write misses
system.switch_cpus0.dstage2_mmu.stage2_tlb.flush_tlb            0                       # Number of times complete TLB was flushed
system.switch_cpus0.dstage2_mmu.stage2_tlb.flush_tlb_mva            0                       # Number of times TLB was flushed by MVA
system.switch_cpus0.dstage2_mmu.stage2_tlb.flush_tlb_mva_asid            0                       # Number of times TLB was flushed by MVA & ASID
system.switch_cpus0.dstage2_mmu.stage2_tlb.flush_tlb_asid            0                       # Number of times TLB was flushed by ASID
system.switch_cpus0.dstage2_mmu.stage2_tlb.flush_entries            0                       # Number of entries that have been flushed from TLB
system.switch_cpus0.dstage2_mmu.stage2_tlb.align_faults            0                       # Number of TLB faults due to alignment restrictions
system.switch_cpus0.dstage2_mmu.stage2_tlb.prefetch_faults            0                       # Number of TLB faults due to prefetch
system.switch_cpus0.dstage2_mmu.stage2_tlb.domain_faults            0                       # Number of TLB faults due to domain restrictions
system.switch_cpus0.dstage2_mmu.stage2_tlb.perms_faults            0                       # Number of TLB faults due to permissions restrictions
system.switch_cpus0.dstage2_mmu.stage2_tlb.read_accesses            0                       # DTB read accesses
system.switch_cpus0.dstage2_mmu.stage2_tlb.write_accesses            0                       # DTB write accesses
system.switch_cpus0.dstage2_mmu.stage2_tlb.inst_accesses            0                       # ITB inst accesses
system.switch_cpus0.dstage2_mmu.stage2_tlb.hits            0                       # DTB hits
system.switch_cpus0.dstage2_mmu.stage2_tlb.misses            0                       # DTB misses
system.switch_cpus0.dstage2_mmu.stage2_tlb.accesses            0                       # DTB accesses
system.switch_cpus0.dtb.inst_hits                   0                       # ITB inst hits
system.switch_cpus0.dtb.inst_misses                 0                       # ITB inst misses
system.switch_cpus0.dtb.read_hits             6635412                       # DTB read hits
system.switch_cpus0.dtb.read_misses             25609                       # DTB read misses
system.switch_cpus0.dtb.write_hits            3904804                       # DTB write hits
system.switch_cpus0.dtb.write_misses             5710                       # DTB write misses
system.switch_cpus0.dtb.flush_tlb                   0                       # Number of times complete TLB was flushed
system.switch_cpus0.dtb.flush_tlb_mva               0                       # Number of times TLB was flushed by MVA
system.switch_cpus0.dtb.flush_tlb_mva_asid         1194                       # Number of times TLB was flushed by MVA & ASID
system.switch_cpus0.dtb.flush_tlb_asid             63                       # Number of times TLB was flushed by ASID
system.switch_cpus0.dtb.flush_entries            1072                       # Number of entries that have been flushed from TLB
system.switch_cpus0.dtb.align_faults              111                       # Number of TLB faults due to alignment restrictions
system.switch_cpus0.dtb.prefetch_faults          1241                       # Number of TLB faults due to prefetch
system.switch_cpus0.dtb.domain_faults               0                       # Number of TLB faults due to domain restrictions
system.switch_cpus0.dtb.perms_faults              350                       # Number of TLB faults due to permissions restrictions
system.switch_cpus0.dtb.read_accesses         6661021                       # DTB read accesses
system.switch_cpus0.dtb.write_accesses        3910514                       # DTB write accesses
system.switch_cpus0.dtb.inst_accesses               0                       # ITB inst accesses
system.switch_cpus0.dtb.hits                 10540216                       # DTB hits
system.switch_cpus0.dtb.misses                  31319                       # DTB misses
system.switch_cpus0.dtb.accesses             10571535                       # DTB accesses
system.switch_cpus0.istage2_mmu.stage2_tlb.inst_hits            0                       # ITB inst hits
system.switch_cpus0.istage2_mmu.stage2_tlb.inst_misses            0                       # ITB inst misses
system.switch_cpus0.istage2_mmu.stage2_tlb.read_hits            0                       # DTB read hits
system.switch_cpus0.istage2_mmu.stage2_tlb.read_misses            0                       # DTB read misses
system.switch_cpus0.istage2_mmu.stage2_tlb.write_hits            0                       # DTB write hits
system.switch_cpus0.istage2_mmu.stage2_tlb.write_misses            0                       # DTB write misses
system.switch_cpus0.istage2_mmu.stage2_tlb.flush_tlb            0                       # Number of times complete TLB was flushed
system.switch_cpus0.istage2_mmu.stage2_tlb.flush_tlb_mva            0                       # Number of times TLB was flushed by MVA
system.switch_cpus0.istage2_mmu.stage2_tlb.flush_tlb_mva_asid            0                       # Number of times TLB was flushed by MVA & ASID
system.switch_cpus0.istage2_mmu.stage2_tlb.flush_tlb_asid            0                       # Number of times TLB was flushed by ASID
system.switch_cpus0.istage2_mmu.stage2_tlb.flush_entries            0                       # Number of entries that have been flushed from TLB
system.switch_cpus0.istage2_mmu.stage2_tlb.align_faults            0                       # Number of TLB faults due to alignment restrictions
system.switch_cpus0.istage2_mmu.stage2_tlb.prefetch_faults            0                       # Number of TLB faults due to prefetch
system.switch_cpus0.istage2_mmu.stage2_tlb.domain_faults            0                       # Number of TLB faults due to domain restrictions
system.switch_cpus0.istage2_mmu.stage2_tlb.perms_faults            0                       # Number of TLB faults due to permissions restrictions
system.switch_cpus0.istage2_mmu.stage2_tlb.read_accesses            0                       # DTB read accesses
system.switch_cpus0.istage2_mmu.stage2_tlb.write_accesses            0                       # DTB write accesses
system.switch_cpus0.istage2_mmu.stage2_tlb.inst_accesses            0                       # ITB inst accesses
system.switch_cpus0.istage2_mmu.stage2_tlb.hits            0                       # DTB hits
system.switch_cpus0.istage2_mmu.stage2_tlb.misses            0                       # DTB misses
system.switch_cpus0.istage2_mmu.stage2_tlb.accesses            0                       # DTB accesses
system.switch_cpus0.itb.inst_hits            43749048                       # ITB inst hits
system.switch_cpus0.itb.inst_misses              3283                       # ITB inst misses
system.switch_cpus0.itb.read_hits                   0                       # DTB read hits
system.switch_cpus0.itb.read_misses                 0                       # DTB read misses
system.switch_cpus0.itb.write_hits                  0                       # DTB write hits
system.switch_cpus0.itb.write_misses                0                       # DTB write misses
system.switch_cpus0.itb.flush_tlb                   0                       # Number of times complete TLB was flushed
system.switch_cpus0.itb.flush_tlb_mva               0                       # Number of times TLB was flushed by MVA
system.switch_cpus0.itb.flush_tlb_mva_asid         1194                       # Number of times TLB was flushed by MVA & ASID
system.switch_cpus0.itb.flush_tlb_asid             63                       # Number of times TLB was flushed by ASID
system.switch_cpus0.itb.flush_entries             832                       # Number of entries that have been flushed from TLB
system.switch_cpus0.itb.align_faults                0                       # Number of TLB faults due to alignment restrictions
system.switch_cpus0.itb.prefetch_faults             0                       # Number of TLB faults due to prefetch
system.switch_cpus0.itb.domain_faults               0                       # Number of TLB faults due to domain restrictions
system.switch_cpus0.itb.perms_faults             1730                       # Number of TLB faults due to permissions restrictions
system.switch_cpus0.itb.read_accesses               0                       # DTB read accesses
system.switch_cpus0.itb.write_accesses              0                       # DTB write accesses
system.switch_cpus0.itb.inst_accesses        43752331                       # ITB inst accesses
system.switch_cpus0.itb.hits                 43749048                       # DTB hits
system.switch_cpus0.itb.misses                   3283                       # DTB misses
system.switch_cpus0.itb.accesses             43752331                       # DTB accesses
system.switch_cpus0.numCycles                77739880                       # number of cpu cycles simulated
system.switch_cpus0.numWorkItemsStarted             0                       # number of work items this cpu started
system.switch_cpus0.numWorkItemsCompleted            0                       # number of work items this cpu completed
system.switch_cpus0.fetch.icacheStallCycles      2762530                       # Number of cycles fetch is stalled on an Icache miss
system.switch_cpus0.fetch.Insts             134603454                       # Number of instructions fetch has processed
system.switch_cpus0.fetch.Branches           23259191                       # Number of branches that fetch encountered
system.switch_cpus0.fetch.predictedBranches     12187407                       # Number of branches that fetch has predicted taken
system.switch_cpus0.fetch.Cycles             72862133                       # Number of cycles fetch has run and was not squashing or blocked
system.switch_cpus0.fetch.SquashCycles        2077286                       # Number of cycles fetch has spent squashing
system.switch_cpus0.fetch.TlbCycles             40245                       # Number of cycles fetch has spent waiting for tlb
system.switch_cpus0.fetch.MiscStallCycles         4297                       # Number of cycles fetch has spent waiting on interrupts, or bad addresses, or out of MSHRs
system.switch_cpus0.fetch.PendingTrapStallCycles        67624                       # Number of stall cycles due to pending traps
system.switch_cpus0.fetch.PendingQuiesceStallCycles       533918                       # Number of stall cycles due to pending quiesce instructions
system.switch_cpus0.fetch.IcacheWaitRetryStallCycles         8454                       # Number of stall cycles due to full MSHR
system.switch_cpus0.fetch.CacheLines         43747205                       # Number of cache lines fetched
system.switch_cpus0.fetch.IcacheSquashes        37052                       # Number of outstanding Icache misses that were squashed
system.switch_cpus0.fetch.ItlbSquashes            709                       # Number of outstanding ITLB misses that were squashed
system.switch_cpus0.fetch.rateDist::samples     77317844                       # Number of instructions fetched each cycle (Total)
system.switch_cpus0.fetch.rateDist::mean     1.806254                       # Number of instructions fetched each cycle (Total)
system.switch_cpus0.fetch.rateDist::stdev     1.108885                       # Number of instructions fetched each cycle (Total)
system.switch_cpus0.fetch.rateDist::underflows            0      0.00%      0.00% # Number of instructions fetched each cycle (Total)
system.switch_cpus0.fetch.rateDist::0         9066390     11.73%     11.73% # Number of instructions fetched each cycle (Total)
system.switch_cpus0.fetch.rateDist::1        29278046     37.87%     49.59% # Number of instructions fetched each cycle (Total)
system.switch_cpus0.fetch.rateDist::2         6542601      8.46%     58.06% # Number of instructions fetched each cycle (Total)
system.switch_cpus0.fetch.rateDist::3        32430807     41.94%    100.00% # Number of instructions fetched each cycle (Total)
system.switch_cpus0.fetch.rateDist::overflows            0      0.00%    100.00% # Number of instructions fetched each cycle (Total)
system.switch_cpus0.fetch.rateDist::min_value            0                       # Number of instructions fetched each cycle (Total)
system.switch_cpus0.fetch.rateDist::max_value            3                       # Number of instructions fetched each cycle (Total)
system.switch_cpus0.fetch.rateDist::total     77317844                       # Number of instructions fetched each cycle (Total)
system.switch_cpus0.fetch.branchRate         0.299193                       # Number of branch fetches per cycle
system.switch_cpus0.fetch.rate               1.731460                       # Number of inst fetches per cycle
system.switch_cpus0.decode.IdleCycles         6668788                       # Number of cycles decode is idle
system.switch_cpus0.decode.BlockedCycles     10899342                       # Number of cycles decode is blocked
system.switch_cpus0.decode.RunCycles         54582001                       # Number of cycles decode is running
system.switch_cpus0.decode.UnblockCycles      4171567                       # Number of cycles decode is unblocking
system.switch_cpus0.decode.SquashCycles        996141                       # Number of cycles decode is squashing
system.switch_cpus0.decode.BranchResolved      3757225                       # Number of times decode resolved a branch
[...]
system.cpu3.dcache.overall_mshr_misses::total        84828                       # number of overall MSHR misses
system.cpu3.dcache.ReadReq_mshr_miss_latency::switch_cpus3.data    349824469                       # number of ReadReq MSHR miss cycles
system.cpu3.dcache.ReadReq_mshr_miss_latency::total    349824469                       # number of ReadReq MSHR miss cycles
system.cpu3.dcache.WriteReq_mshr_miss_latency::switch_cpus3.data     68616424                       # number of WriteReq MSHR miss cycles
system.cpu3.dcache.WriteReq_mshr_miss_latency::total     68616424                       # number of WriteReq MSHR miss cycles
system.cpu3.dcache.SoftPFReq_mshr_miss_latency::switch_cpus3.data    542644017                       # number of SoftPFReq MSHR miss cycles
system.cpu3.dcache.SoftPFReq_mshr_miss_latency::total    542644017                       # number of SoftPFReq MSHR miss cycles
system.cpu3.dcache.LoadLockedReq_mshr_miss_latency::switch_cpus3.data     10963007                       # number of LoadLockedReq MSHR miss cycles
system.cpu3.dcache.LoadLockedReq_mshr_miss_latency::total     10963007                       # number of LoadLockedReq MSHR miss cycles
system.cpu3.dcache.StoreCondReq_mshr_miss_latency::switch_cpus3.data      3926392                       # number of StoreCondReq MSHR miss cycles
system.cpu3.dcache.StoreCondReq_mshr_miss_latency::total      3926392                       # number of StoreCondReq MSHR miss cycles
system.cpu3.dcache.StoreCondFailReq_mshr_miss_latency::switch_cpus3.data        38000                       # number of StoreCondFailReq MSHR miss cycles
system.cpu3.dcache.StoreCondFailReq_mshr_miss_latency::total        38000                       # number of StoreCondFailReq MSHR miss cycles
system.cpu3.dcache.demand_mshr_miss_latency::switch_cpus3.data    418440893                       # number of demand (read+write) MSHR miss cycles
system.cpu3.dcache.demand_mshr_miss_latency::total    418440893                       # number of demand (read+write) MSHR miss cycles
system.cpu3.dcache.overall_mshr_miss_latency::switch_cpus3.data    961084910                       # number of overall MSHR miss cycles
system.cpu3.dcache.overall_mshr_miss_latency::total    961084910                       # number of overall MSHR miss cycles
system.cpu3.dcache.ReadReq_mshr_uncacheable_latency::switch_cpus3.data     39042501                       # number of ReadReq MSHR uncacheable cycles
system.cpu3.dcache.ReadReq_mshr_uncacheable_latency::total     39042501                       # number of ReadReq MSHR uncacheable cycles
system.cpu3.dcache.WriteReq_mshr_uncacheable_latency::switch_cpus3.data      1829499                       # number of WriteReq MSHR uncacheable cycles
system.cpu3.dcache.WriteReq_mshr_uncacheable_latency::total      1829499                       # number of WriteReq MSHR uncacheable cycles
system.cpu3.dcache.overall_mshr_uncacheable_latency::switch_cpus3.data     40872000                       # number of overall MSHR uncacheable cycles
system.cpu3.dcache.overall_mshr_uncacheable_latency::total     40872000                       # number of overall MSHR uncacheable cycles
system.cpu3.dcache.ReadReq_mshr_miss_rate::switch_cpus3.data     0.012597                       # mshr miss rate for ReadReq accesses
system.cpu3.dcache.ReadReq_mshr_miss_rate::total     0.012597                       # mshr miss rate for ReadReq accesses
system.cpu3.dcache.WriteReq_mshr_miss_rate::switch_cpus3.data     0.008171                       # mshr miss rate for WriteReq accesses
system.cpu3.dcache.WriteReq_mshr_miss_rate::total     0.008171                       # mshr miss rate for WriteReq accesses
system.cpu3.dcache.SoftPFReq_mshr_miss_rate::switch_cpus3.data     0.188860                       # mshr miss rate for SoftPFReq accesses
system.cpu3.dcache.SoftPFReq_mshr_miss_rate::total     0.188860                       # mshr miss rate for SoftPFReq accesses
system.cpu3.dcache.LoadLockedReq_mshr_miss_rate::switch_cpus3.data     0.080805                       # mshr miss rate for LoadLockedReq accesses
system.cpu3.dcache.LoadLockedReq_mshr_miss_rate::total     0.080805                       # mshr miss rate for LoadLockedReq accesses
system.cpu3.dcache.StoreCondReq_mshr_miss_rate::switch_cpus3.data     0.106802                       # mshr miss rate for StoreCondReq accesses
system.cpu3.dcache.StoreCondReq_mshr_miss_rate::total     0.106802                       # mshr miss rate for StoreCondReq accesses
system.cpu3.dcache.demand_mshr_miss_rate::switch_cpus3.data     0.011541                       # mshr miss rate for demand accesses
system.cpu3.dcache.demand_mshr_miss_rate::total     0.011541                       # mshr miss rate for demand accesses
system.cpu3.dcache.overall_mshr_miss_rate::switch_cpus3.data     0.024118                       # mshr miss rate for overall accesses
system.cpu3.dcache.overall_mshr_miss_rate::total     0.024118                       # mshr miss rate for overall accesses
system.cpu3.dcache.ReadReq_avg_mshr_miss_latency::switch_cpus3.data 11162.235769                       # average ReadReq mshr miss latency
system.cpu3.dcache.ReadReq_avg_mshr_miss_latency::total 11162.235769                       # average ReadReq mshr miss latency
system.cpu3.dcache.WriteReq_avg_mshr_miss_latency::switch_cpus3.data 10768.428123                       # average WriteReq mshr miss latency
system.cpu3.dcache.WriteReq_avg_mshr_miss_latency::total 10768.428123                       # average WriteReq mshr miss latency
system.cpu3.dcache.SoftPFReq_avg_mshr_miss_latency::switch_cpus3.data 11517.191973                       # average SoftPFReq mshr miss latency
system.cpu3.dcache.SoftPFReq_avg_mshr_miss_latency::total 11517.191973                       # average SoftPFReq mshr miss latency
system.cpu3.dcache.LoadLockedReq_avg_mshr_miss_latency::switch_cpus3.data 13320.786148                       # average LoadLockedReq mshr miss latency
system.cpu3.dcache.LoadLockedReq_avg_mshr_miss_latency::total 13320.786148                       # average LoadLockedReq mshr miss latency
system.cpu3.dcache.StoreCondReq_avg_mshr_miss_latency::switch_cpus3.data  3732.311787                       # average StoreCondReq mshr miss latency
system.cpu3.dcache.StoreCondReq_avg_mshr_miss_latency::total  3732.311787                       # average StoreCondReq mshr miss latency
system.cpu3.dcache.StoreCondFailReq_avg_mshr_miss_latency::switch_cpus3.data          inf                       # average StoreCondFailReq mshr miss latency
system.cpu3.dcache.StoreCondFailReq_avg_mshr_miss_latency::total          inf                       # average StoreCondFailReq mshr miss latency
system.cpu3.dcache.demand_avg_mshr_miss_latency::switch_cpus3.data 11095.696144                       # average overall mshr miss latency
system.cpu3.dcache.demand_avg_mshr_miss_latency::total 11095.696144                       # average overall mshr miss latency
system.cpu3.dcache.overall_avg_mshr_miss_latency::switch_cpus3.data 11329.807493                       # average overall mshr miss latency
system.cpu3.dcache.overall_avg_mshr_miss_latency::total 11329.807493                       # average overall mshr miss latency
system.cpu3.dcache.ReadReq_avg_mshr_uncacheable_latency::switch_cpus3.data          inf                       # average ReadReq mshr uncacheable latency
system.cpu3.dcache.ReadReq_avg_mshr_uncacheable_latency::total          inf                       # average ReadReq mshr uncacheable latency
system.cpu3.dcache.WriteReq_avg_mshr_uncacheable_latency::switch_cpus3.data          inf                       # average WriteReq mshr uncacheable latency
system.cpu3.dcache.WriteReq_avg_mshr_uncacheable_latency::total          inf                       # average WriteReq mshr uncacheable latency
system.cpu3.dcache.overall_avg_mshr_uncacheable_latency::switch_cpus3.data          inf                       # average overall mshr uncacheable latency
system.cpu3.dcache.overall_avg_mshr_uncacheable_latency::total          inf                       # average overall mshr uncacheable latency
system.cpu3.dcache.no_allocate_misses               0                       # Number of misses that were no-allocate
system.iocache.tags.replacements                  114                       # number of replacements
system.iocache.tags.tagsinuse               14.426450                       # Cycle average of tags in use
system.iocache.tags.total_refs                      0                       # Total number of references to valid blocks.
system.iocache.tags.sampled_refs                  130                       # Sample count of references to valid blocks.
system.iocache.tags.avg_refs                        0                       # Average number of references to valid blocks.
system.iocache.tags.warmup_cycle         2854420241000                       # Cycle when the warmup percentage was hit.
system.iocache.tags.occ_blocks::realview.ide    14.426450                       # Average occupied blocks per requestor
system.iocache.tags.occ_percent::realview.ide     0.901653                       # Average percentage of cache occupancy
system.iocache.tags.occ_percent::total       0.901653                       # Average percentage of cache occupancy
system.iocache.tags.occ_task_id_blocks::1023           16                       # Occupied blocks per task id
system.iocache.tags.age_task_id_blocks_1023::4           16                       # Occupied blocks per task id
system.iocache.tags.occ_task_id_percent::1023            1                       # Percentage of cache occupancy per task id
system.iocache.tags.tag_accesses                 1170                       # Number of tag accesses
system.iocache.tags.data_accesses                1170                       # Number of data accesses
system.iocache.WriteInvalidateReq_hits::realview.ide          128                       # number of WriteInvalidateReq hits
system.iocache.WriteInvalidateReq_hits::total          128                       # number of WriteInvalidateReq hits
system.iocache.ReadReq_misses::realview.ide            2                       # number of ReadReq misses
system.iocache.ReadReq_misses::total                2                       # number of ReadReq misses
system.iocache.demand_misses::realview.ide            2                       # number of demand (read+write) misses
system.iocache.demand_misses::total                 2                       # number of demand (read+write) misses
system.iocache.overall_misses::realview.ide            2                       # number of overall misses
system.iocache.overall_misses::total                2                       # number of overall misses
system.iocache.ReadReq_miss_latency::realview.ide       218999                       # number of ReadReq miss cycles
system.iocache.ReadReq_miss_latency::total       218999                       # number of ReadReq miss cycles
system.iocache.demand_miss_latency::realview.ide       218999                       # number of demand (read+write) miss cycles
system.iocache.demand_miss_latency::total       218999                       # number of demand (read+write) miss cycles
system.iocache.overall_miss_latency::realview.ide       218999                       # number of overall miss cycles
system.iocache.overall_miss_latency::total       218999                       # number of overall miss cycles
system.iocache.ReadReq_accesses::realview.ide            2                       # number of ReadReq accesses(hits+misses)
system.iocache.ReadReq_accesses::total              2                       # number of ReadReq accesses(hits+misses)
system.iocache.WriteInvalidateReq_accesses::realview.ide          128                       # number of WriteInvalidateReq accesses(hits+misses)
system.iocache.WriteInvalidateReq_accesses::total          128                       # number of WriteInvalidateReq accesses(hits+misses)
system.iocache.demand_accesses::realview.ide            2                       # number of demand (read+write) accesses
system.iocache.demand_accesses::total               2                       # number of demand (read+write) accesses
system.iocache.overall_accesses::realview.ide            2                       # number of overall (read+write) accesses
system.iocache.overall_accesses::total              2                       # number of overall (read+write) accesses
system.iocache.ReadReq_miss_rate::realview.ide            1                       # miss rate for ReadReq accesses
system.iocache.ReadReq_miss_rate::total             1                       # miss rate for ReadReq accesses
system.iocache.demand_miss_rate::realview.ide            1                       # miss rate for demand accesses
system.iocache.demand_miss_rate::total              1                       # miss rate for demand accesses
system.iocache.overall_miss_rate::realview.ide            1                       # miss rate for overall accesses
system.iocache.overall_miss_rate::total             1                       # miss rate for overall accesses
system.iocache.ReadReq_avg_miss_latency::realview.ide 109499.500000                       # average ReadReq miss latency
system.iocache.ReadReq_avg_miss_latency::total 109499.500000                       # average ReadReq miss latency
system.iocache.demand_avg_miss_latency::realview.ide 109499.500000                       # average overall miss latency
system.iocache.demand_avg_miss_latency::total 109499.500000                       # average overall miss latency
system.iocache.overall_avg_miss_latency::realview.ide 109499.500000                       # average overall miss latency
system.iocache.overall_avg_miss_latency::total 109499.500000                       # average overall miss latency
system.iocache.blocked_cycles::no_mshrs             0                       # number of cycles access was blocked
system.iocache.blocked_cycles::no_targets            0                       # number of cycles access was blocked
system.iocache.blocked::no_mshrs                    0                       # number of cycles access was blocked
system.iocache.blocked::no_targets                  0                       # number of cycles access was blocked
system.iocache.avg_blocked_cycles::no_mshrs          nan                       # average number of cycles each access was blocked
system.iocache.avg_blocked_cycles::no_targets          nan                       # average number of cycles each access was blocked
system.iocache.fast_writes                        128                       # number of fast writes performed
system.iocache.cache_copies                         0                       # number of cache copies performed
system.iocache.ReadReq_mshr_misses::realview.ide            2                       # number of ReadReq MSHR misses
system.iocache.ReadReq_mshr_misses::total            2                       # number of ReadReq MSHR misses
system.iocache.WriteInvalidateReq_mshr_misses::realview.ide          128                       # number of WriteInvalidateReq MSHR misses
system.iocache.WriteInvalidateReq_mshr_misses::total          128                       # number of WriteInvalidateReq MSHR misses
system.iocache.demand_mshr_misses::realview.ide            2                       # number of demand (read+write) MSHR misses
system.iocache.demand_mshr_misses::total            2                       # number of demand (read+write) MSHR misses
system.iocache.overall_mshr_misses::realview.ide            2                       # number of overall MSHR misses
system.iocache.overall_mshr_misses::total            2                       # number of overall MSHR misses
system.iocache.ReadReq_mshr_miss_latency::realview.ide       114999                       # number of ReadReq MSHR miss cycles
system.iocache.ReadReq_mshr_miss_latency::total       114999                       # number of ReadReq MSHR miss cycles
system.iocache.WriteInvalidateReq_mshr_miss_latency::realview.ide      8436993                       # number of WriteInvalidateReq MSHR miss cycles
system.iocache.WriteInvalidateReq_mshr_miss_latency::total      8436993                       # number of WriteInvalidateReq MSHR miss cycles
system.iocache.demand_mshr_miss_latency::realview.ide       114999                       # number of demand (read+write) MSHR miss cycles
system.iocache.demand_mshr_miss_latency::total       114999                       # number of demand (read+write) MSHR miss cycles
system.iocache.overall_mshr_miss_latency::realview.ide       114999                       # number of overall MSHR miss cycles
system.iocache.overall_mshr_miss_latency::total       114999                       # number of overall MSHR miss cycles
system.iocache.ReadReq_mshr_miss_rate::realview.ide            1                       # mshr miss rate for ReadReq accesses
system.iocache.ReadReq_mshr_miss_rate::total            1                       # mshr miss rate for ReadReq accesses
system.iocache.WriteInvalidateReq_mshr_miss_rate::realview.ide            1                       # mshr miss rate for WriteInvalidateReq accesses
system.iocache.WriteInvalidateReq_mshr_miss_rate::total            1                       # mshr miss rate for WriteInvalidateReq accesses
system.iocache.demand_mshr_miss_rate::realview.ide            1                       # mshr miss rate for demand accesses
system.iocache.demand_mshr_miss_rate::total            1                       # mshr miss rate for demand accesses
system.iocache.overall_mshr_miss_rate::realview.ide            1                       # mshr miss rate for overall accesses
system.iocache.overall_mshr_miss_rate::total            1                       # mshr miss rate for overall accesses
system.iocache.ReadReq_avg_mshr_miss_latency::realview.ide 57499.500000                       # average ReadReq mshr miss latency
system.iocache.ReadReq_avg_mshr_miss_latency::total 57499.500000                       # average ReadReq mshr miss latency
system.iocache.WriteInvalidateReq_avg_mshr_miss_latency::realview.ide 65914.007812                       # average WriteInvalidateReq mshr miss latency
system.iocache.WriteInvalidateReq_avg_mshr_miss_latency::total 65914.007812                       # average WriteInvalidateReq mshr miss latency
system.iocache.demand_avg_mshr_miss_latency::realview.ide 57499.500000                       # average overall mshr miss latency
system.iocache.demand_avg_mshr_miss_latency::total 57499.500000                       # average overall mshr miss latency
system.iocache.overall_avg_mshr_miss_latency::realview.ide 57499.500000                       # average overall mshr miss latency
system.iocache.overall_avg_mshr_miss_latency::total 57499.500000                       # average overall mshr miss latency
system.iocache.no_allocate_misses                   0                       # Number of misses that were no-allocate
system.switch_cpus0.kern.inst.arm                   0                       # number of arm instructions executed
system.switch_cpus0.kern.inst.quiesce               0                       # number of quiesce instructions executed
system.switch_cpus1.kern.inst.arm                   0                       # number of arm instructions executed
system.switch_cpus1.kern.inst.quiesce               0                       # number of quiesce instructions executed
system.switch_cpus2.kern.inst.arm                   0                       # number of arm instructions executed
system.switch_cpus2.kern.inst.quiesce               0                       # number of quiesce instructions executed
system.switch_cpus3.kern.inst.arm                   0                       # number of arm instructions executed
system.switch_cpus3.kern.inst.quiesce               0                       # number of quiesce instructions executed

---------- End Simulation Statistics   ----------
