
---------- Begin Simulation Statistics ----------
sim_seconds                                  0.241467                       # Number of seconds simulated
sim_ticks                                241467155000                       # Number of ticks simulated
final_tick                               3437138076500                       # Number of ticks from beginning of simulation (restored from checkpoints and never reset)
sim_freq                                 1000000000000                       # Frequency of simulated ticks
host_inst_rate                                 224797                       # Simulator instruction rate (inst/s)
host_op_rate                                   226505                       # Simulator op (including micro ops) rate (op/s)
host_tick_rate                               11613826                       # Simulator tick rate (ticks/s)
host_mem_usage                                 982124                       # Number of bytes of host memory used
host_seconds                                 20791.36                       # Real time elapsed on the host
sim_insts                                  4673832110                       # Number of instructions simulated
sim_ops                                    4709348427                       # Number of ops (including micro ops) simulated
system.voltage_domain.voltage                       1                       # Voltage in Volts
system.clk_domain.clock                          1000                       # Clock period in ticks
system.mem_ctrls.bytes_read::switch_cpus0.dtb.walker        50112                       # Number of bytes read from this memory
system.mem_ctrls.bytes_read::switch_cpus0.itb.walker        11008                       # Number of bytes read from this memory
system.mem_ctrls.bytes_read::switch_cpus0.inst       325056                       # Number of bytes read from this memory
system.mem_ctrls.bytes_read::switch_cpus0.data     12096320                       # Number of bytes read from this memory
system.mem_ctrls.bytes_read::switch_cpus1.dtb.walker        33088                       # Number of bytes read from this memory
system.mem_ctrls.bytes_read::switch_cpus1.itb.walker         6208                       # Number of bytes read from this memory
system.mem_ctrls.bytes_read::switch_cpus1.inst       416704                       # Number of bytes read from this memory
system.mem_ctrls.bytes_read::switch_cpus1.data     12093888                       # Number of bytes read from this memory
system.mem_ctrls.bytes_read::switch_cpus2.dtb.walker        33216                       # Number of bytes read from this memory
system.mem_ctrls.bytes_read::switch_cpus2.itb.walker         3968                       # Number of bytes read from this memory
system.mem_ctrls.bytes_read::switch_cpus2.inst       635904                       # Number of bytes read from this memory
system.mem_ctrls.bytes_read::switch_cpus2.data     12971072                       # Number of bytes read from this memory
system.mem_ctrls.bytes_read::switch_cpus3.dtb.walker        31680                       # Number of bytes read from this memory
system.mem_ctrls.bytes_read::switch_cpus3.itb.walker         5888                       # Number of bytes read from this memory
system.mem_ctrls.bytes_read::switch_cpus3.inst       386816                       # Number of bytes read from this memory
system.mem_ctrls.bytes_read::switch_cpus3.data     11751680                       # Number of bytes read from this memory
system.mem_ctrls.bytes_read::switch_cpus4.dtb.walker        30016                       # Number of bytes read from this memory
system.mem_ctrls.bytes_read::switch_cpus4.itb.walker         4736                       # Number of bytes read from this memory
system.mem_ctrls.bytes_read::switch_cpus4.inst       339008                       # Number of bytes read from this memory
system.mem_ctrls.bytes_read::switch_cpus4.data     11775680                       # Number of bytes read from this memory
system.mem_ctrls.bytes_read::switch_cpus5.dtb.walker        42304                       # Number of bytes read from this memory
system.mem_ctrls.bytes_read::switch_cpus5.itb.walker        14656                       # Number of bytes read from this memory
system.mem_ctrls.bytes_read::switch_cpus5.inst       384832                       # Number of bytes read from this memory
system.mem_ctrls.bytes_read::switch_cpus5.data     11896192                       # Number of bytes read from this memory
system.mem_ctrls.bytes_read::switch_cpus6.dtb.walker        54080                       # Number of bytes read from this memory
system.mem_ctrls.bytes_read::switch_cpus6.itb.walker        26112                       # Number of bytes read from this memory
system.mem_ctrls.bytes_read::switch_cpus6.inst       655744                       # Number of bytes read from this memory
system.mem_ctrls.bytes_read::switch_cpus6.data     12579968                       # Number of bytes read from this memory
system.mem_ctrls.bytes_read::switch_cpus7.dtb.walker        36544                       # Number of bytes read from this memory
system.mem_ctrls.bytes_read::switch_cpus7.itb.walker         8384                       # Number of bytes read from this memory
system.mem_ctrls.bytes_read::switch_cpus7.inst       474496                       # Number of bytes read from this memory
system.mem_ctrls.bytes_read::switch_cpus7.data     12158656                       # Number of bytes read from this memory
system.mem_ctrls.bytes_read::l2.prefetcher     30148416                       # Number of bytes read from this memory
system.mem_ctrls.bytes_read::cpu0.inst            256                       # Number of bytes read from this memory
system.mem_ctrls.bytes_read::cpu0.data            192                       # Number of bytes read from this memory
system.mem_ctrls.bytes_read::cpu6.inst             64                       # Number of bytes read from this memory
system.mem_ctrls.bytes_read::cpu6.data            128                       # Number of bytes read from this memory
system.mem_ctrls.bytes_read::cpu7.inst            192                       # Number of bytes read from this memory
system.mem_ctrls.bytes_read::cpu7.data            192                       # Number of bytes read from this memory
system.mem_ctrls.bytes_read::total          131483456                       # Number of bytes read from this memory
system.mem_ctrls.bytes_inst_read::switch_cpus0.inst       325056                       # Number of instructions bytes read from this memory
system.mem_ctrls.bytes_inst_read::switch_cpus1.inst       416704                       # Number of instructions bytes read from this memory
system.mem_ctrls.bytes_inst_read::switch_cpus2.inst       635904                       # Number of instructions bytes read from this memory
system.mem_ctrls.bytes_inst_read::switch_cpus3.inst       386816                       # Number of instructions bytes read from this memory
system.mem_ctrls.bytes_inst_read::switch_cpus4.inst       339008                       # Number of instructions bytes read from this memory
system.mem_ctrls.bytes_inst_read::switch_cpus5.inst       384832                       # Number of instructions bytes read from this memory
system.mem_ctrls.bytes_inst_read::switch_cpus6.inst       655744                       # Number of instructions bytes read from this memory
system.mem_ctrls.bytes_inst_read::switch_cpus7.inst       474496                       # Number of instructions bytes read from this memory
system.mem_ctrls.bytes_inst_read::cpu0.inst          256                       # Number of instructions bytes read from this memory
system.mem_ctrls.bytes_inst_read::cpu6.inst           64                       # Number of instructions bytes read from this memory
system.mem_ctrls.bytes_inst_read::cpu7.inst          192                       # Number of instructions bytes read from this memory
system.mem_ctrls.bytes_inst_read::total       3619072                       # Number of instructions bytes read from this memory
system.mem_ctrls.bytes_written::writebacks     16239680                       # Number of bytes written to this memory
system.mem_ctrls.bytes_written::realview.ide         8192                       # Number of bytes written to this memory
system.mem_ctrls.bytes_written::total        16247872                       # Number of bytes written to this memory
system.mem_ctrls.num_reads::switch_cpus0.dtb.walker          783                       # Number of read requests responded to by this memory
system.mem_ctrls.num_reads::switch_cpus0.itb.walker          172                       # Number of read requests responded to by this memory
system.mem_ctrls.num_reads::switch_cpus0.inst         5079                       # Number of read requests responded to by this memory
system.mem_ctrls.num_reads::switch_cpus0.data       189005                       # Number of read requests responded to by this memory
system.mem_ctrls.num_reads::switch_cpus1.dtb.walker          517                       # Number of read requests responded to by this memory
system.mem_ctrls.num_reads::switch_cpus1.itb.walker           97                       # Number of read requests responded to by this memory
system.mem_ctrls.num_reads::switch_cpus1.inst         6511                       # Number of read requests responded to by this memory
system.mem_ctrls.num_reads::switch_cpus1.data       188967                       # Number of read requests responded to by this memory
system.mem_ctrls.num_reads::switch_cpus2.dtb.walker          519                       # Number of read requests responded to by this memory
system.mem_ctrls.num_reads::switch_cpus2.itb.walker           62                       # Number of read requests responded to by this memory
system.mem_ctrls.num_reads::switch_cpus2.inst         9936                       # Number of read requests responded to by this memory
system.mem_ctrls.num_reads::switch_cpus2.data       202673                       # Number of read requests responded to by this memory
system.mem_ctrls.num_reads::switch_cpus3.dtb.walker          495                       # Number of read requests responded to by this memory
system.mem_ctrls.num_reads::switch_cpus3.itb.walker           92                       # Number of read requests responded to by this memory
system.mem_ctrls.num_reads::switch_cpus3.inst         6044                       # Number of read requests responded to by this memory
system.mem_ctrls.num_reads::switch_cpus3.data       183620                       # Number of read requests responded to by this memory
system.mem_ctrls.num_reads::switch_cpus4.dtb.walker          469                       # Number of read requests responded to by this memory
system.mem_ctrls.num_reads::switch_cpus4.itb.walker           74                       # Number of read requests responded to by this memory
system.mem_ctrls.num_reads::switch_cpus4.inst         5297                       # Number of read requests responded to by this memory
system.mem_ctrls.num_reads::switch_cpus4.data       183995                       # Number of read requests responded to by this memory
system.mem_ctrls.num_reads::switch_cpus5.dtb.walker          661                       # Number of read requests responded to by this memory
system.mem_ctrls.num_reads::switch_cpus5.itb.walker          229                       # Number of read requests responded to by this memory
system.mem_ctrls.num_reads::switch_cpus5.inst         6013                       # Number of read requests responded to by this memory
system.mem_ctrls.num_reads::switch_cpus5.data       185878                       # Number of read requests responded to by this memory
system.mem_ctrls.num_reads::switch_cpus6.dtb.walker          845                       # Number of read requests responded to by this memory
system.mem_ctrls.num_reads::switch_cpus6.itb.walker          408                       # Number of read requests responded to by this memory
system.mem_ctrls.num_reads::switch_cpus6.inst        10246                       # Number of read requests responded to by this memory
system.mem_ctrls.num_reads::switch_cpus6.data       196562                       # Number of read requests responded to by this memory
system.mem_ctrls.num_reads::switch_cpus7.dtb.walker          571                       # Number of read requests responded to by this memory
system.mem_ctrls.num_reads::switch_cpus7.itb.walker          131                       # Number of read requests responded to by this memory
system.mem_ctrls.num_reads::switch_cpus7.inst         7414                       # Number of read requests responded to by this memory
system.mem_ctrls.num_reads::switch_cpus7.data       189979                       # Number of read requests responded to by this memory
system.mem_ctrls.num_reads::l2.prefetcher       471069                       # Number of read requests responded to by this memory
system.mem_ctrls.num_reads::cpu0.inst               4                       # Number of read requests responded to by this memory
system.mem_ctrls.num_reads::cpu0.data               3                       # Number of read requests responded to by this memory
system.mem_ctrls.num_reads::cpu6.inst               1                       # Number of read requests responded to by this memory
system.mem_ctrls.num_reads::cpu6.data               2                       # Number of read requests responded to by this memory
system.mem_ctrls.num_reads::cpu7.inst               3                       # Number of read requests responded to by this memory
system.mem_ctrls.num_reads::cpu7.data               3                       # Number of read requests responded to by this memory
system.mem_ctrls.num_reads::total             2054429                       # Number of read requests responded to by this memory
system.mem_ctrls.num_writes::writebacks        253745                       # Number of write requests responded to by this memory
system.mem_ctrls.num_writes::realview.ide          128                       # Number of write requests responded to by this memory
system.mem_ctrls.num_writes::total             253873                       # Number of write requests responded to by this memory
system.mem_ctrls.bw_read::switch_cpus0.dtb.walker       207531                       # Total read bandwidth from this memory (bytes/s)
system.mem_ctrls.bw_read::switch_cpus0.itb.walker        45588                       # Total read bandwidth from this memory (bytes/s)
system.mem_ctrls.bw_read::switch_cpus0.inst      1346171                       # Total read bandwidth from this memory (bytes/s)
system.mem_ctrls.bw_read::switch_cpus0.data     50095095                       # Total read bandwidth from this memory (bytes/s)
system.mem_ctrls.bw_read::switch_cpus1.dtb.walker       137029                       # Total read bandwidth from this memory (bytes/s)
system.mem_ctrls.bw_read::switch_cpus1.itb.walker        25710                       # Total read bandwidth from this memory (bytes/s)
system.mem_ctrls.bw_read::switch_cpus1.inst      1725717                       # Total read bandwidth from this memory (bytes/s)
system.mem_ctrls.bw_read::switch_cpus1.data     50085023                       # Total read bandwidth from this memory (bytes/s)
system.mem_ctrls.bw_read::switch_cpus2.dtb.walker       137559                       # Total read bandwidth from this memory (bytes/s)
system.mem_ctrls.bw_read::switch_cpus2.itb.walker        16433                       # Total read bandwidth from this memory (bytes/s)
system.mem_ctrls.bw_read::switch_cpus2.inst      2633501                       # Total read bandwidth from this memory (bytes/s)
system.mem_ctrls.bw_read::switch_cpus2.data     53717749                       # Total read bandwidth from this memory (bytes/s)
system.mem_ctrls.bw_read::switch_cpus3.dtb.walker       131198                       # Total read bandwidth from this memory (bytes/s)
system.mem_ctrls.bw_read::switch_cpus3.itb.walker        24384                       # Total read bandwidth from this memory (bytes/s)
system.mem_ctrls.bw_read::switch_cpus3.inst      1601940                       # Total read bandwidth from this memory (bytes/s)
system.mem_ctrls.bw_read::switch_cpus3.data     48667820                       # Total read bandwidth from this memory (bytes/s)
system.mem_ctrls.bw_read::switch_cpus4.dtb.walker       124307                       # Total read bandwidth from this memory (bytes/s)
system.mem_ctrls.bw_read::switch_cpus4.itb.walker        19613                       # Total read bandwidth from this memory (bytes/s)
system.mem_ctrls.bw_read::switch_cpus4.inst      1403951                       # Total read bandwidth from this memory (bytes/s)
system.mem_ctrls.bw_read::switch_cpus4.data     48767212                       # Total read bandwidth from this memory (bytes/s)
system.mem_ctrls.bw_read::switch_cpus5.dtb.walker       175196                       # Total read bandwidth from this memory (bytes/s)
system.mem_ctrls.bw_read::switch_cpus5.itb.walker        60696                       # Total read bandwidth from this memory (bytes/s)
system.mem_ctrls.bw_read::switch_cpus5.inst      1593724                       # Total read bandwidth from this memory (bytes/s)
system.mem_ctrls.bw_read::switch_cpus5.data     49266295                       # Total read bandwidth from this memory (bytes/s)
system.mem_ctrls.bw_read::switch_cpus6.dtb.walker       223964                       # Total read bandwidth from this memory (bytes/s)
system.mem_ctrls.bw_read::switch_cpus6.itb.walker       108139                       # Total read bandwidth from this memory (bytes/s)
system.mem_ctrls.bw_read::switch_cpus6.inst      2715665                       # Total read bandwidth from this memory (bytes/s)
system.mem_ctrls.bw_read::switch_cpus6.data     52098050                       # Total read bandwidth from this memory (bytes/s)
system.mem_ctrls.bw_read::switch_cpus7.dtb.walker       151341                       # Total read bandwidth from this memory (bytes/s)
system.mem_ctrls.bw_read::switch_cpus7.itb.walker        34721                       # Total read bandwidth from this memory (bytes/s)
system.mem_ctrls.bw_read::switch_cpus7.inst      1965054                       # Total read bandwidth from this memory (bytes/s)
system.mem_ctrls.bw_read::switch_cpus7.data     50353250                       # Total read bandwidth from this memory (bytes/s)
system.mem_ctrls.bw_read::l2.prefetcher     124855142                       # Total read bandwidth from this memory (bytes/s)
system.mem_ctrls.bw_read::cpu0.inst              1060                       # Total read bandwidth from this memory (bytes/s)
system.mem_ctrls.bw_read::cpu0.data               795                       # Total read bandwidth from this memory (bytes/s)
system.mem_ctrls.bw_read::cpu6.inst               265                       # Total read bandwidth from this memory (bytes/s)
system.mem_ctrls.bw_read::cpu6.data               530                       # Total read bandwidth from this memory (bytes/s)
system.mem_ctrls.bw_read::cpu7.inst               795                       # Total read bandwidth from this memory (bytes/s)
system.mem_ctrls.bw_read::cpu7.data               795                       # Total read bandwidth from this memory (bytes/s)
system.mem_ctrls.bw_read::total             544519009                       # Total read bandwidth from this memory (bytes/s)
system.mem_ctrls.bw_inst_read::switch_cpus0.inst      1346171                       # Instruction read bandwidth from this memory (bytes/s)
system.mem_ctrls.bw_inst_read::switch_cpus1.inst      1725717                       # Instruction read bandwidth from this memory (bytes/s)
system.mem_ctrls.bw_inst_read::switch_cpus2.inst      2633501                       # Instruction read bandwidth from this memory (bytes/s)
system.mem_ctrls.bw_inst_read::switch_cpus3.inst      1601940                       # Instruction read bandwidth from this memory (bytes/s)
system.mem_ctrls.bw_inst_read::switch_cpus4.inst      1403951                       # Instruction read bandwidth from this memory (bytes/s)
system.mem_ctrls.bw_inst_read::switch_cpus5.inst      1593724                       # Instruction read bandwidth from this memory (bytes/s)
system.mem_ctrls.bw_inst_read::switch_cpus6.inst      2715665                       # Instruction read bandwidth from this memory (bytes/s)
system.mem_ctrls.bw_inst_read::switch_cpus7.inst      1965054                       # Instruction read bandwidth from this memory (bytes/s)
system.mem_ctrls.bw_inst_read::cpu0.inst         1060                       # Instruction read bandwidth from this memory (bytes/s)
system.mem_ctrls.bw_inst_read::cpu6.inst          265                       # Instruction read bandwidth from this memory (bytes/s)
system.mem_ctrls.bw_inst_read::cpu7.inst          795                       # Instruction read bandwidth from this memory (bytes/s)
system.mem_ctrls.bw_inst_read::total         14987844                       # Instruction read bandwidth from this memory (bytes/s)
system.mem_ctrls.bw_write::writebacks        67254199                       # Write bandwidth from this memory (bytes/s)
system.mem_ctrls.bw_write::realview.ide         33926                       # Write bandwidth from this memory (bytes/s)
system.mem_ctrls.bw_write::total             67288125                       # Write bandwidth from this memory (bytes/s)
system.mem_ctrls.bw_total::writebacks        67254199                       # Total bandwidth to/from this memory (bytes/s)
system.mem_ctrls.bw_total::switch_cpus0.dtb.walker       207531                       # Total bandwidth to/from this memory (bytes/s)
system.mem_ctrls.bw_total::switch_cpus0.itb.walker        45588                       # Total bandwidth to/from this memory (bytes/s)
system.mem_ctrls.bw_total::switch_cpus0.inst      1346171                       # Total bandwidth to/from this memory (bytes/s)
system.mem_ctrls.bw_total::switch_cpus0.data     50095095                       # Total bandwidth to/from this memory (bytes/s)
system.mem_ctrls.bw_total::switch_cpus1.dtb.walker       137029                       # Total bandwidth to/from this memory (bytes/s)
system.mem_ctrls.bw_total::switch_cpus1.itb.walker        25710                       # Total bandwidth to/from this memory (bytes/s)
system.mem_ctrls.bw_total::switch_cpus1.inst      1725717                       # Total bandwidth to/from this memory (bytes/s)
system.mem_ctrls.bw_total::switch_cpus1.data     50085023                       # Total bandwidth to/from this memory (bytes/s)
system.mem_ctrls.bw_total::switch_cpus2.dtb.walker       137559                       # Total bandwidth to/from this memory (bytes/s)
system.mem_ctrls.bw_total::switch_cpus2.itb.walker        16433                       # Total bandwidth to/from this memory (bytes/s)
system.mem_ctrls.bw_total::switch_cpus2.inst      2633501                       # Total bandwidth to/from this memory (bytes/s)
system.mem_ctrls.bw_total::switch_cpus2.data     53717749                       # Total bandwidth to/from this memory (bytes/s)
system.mem_ctrls.bw_total::switch_cpus3.dtb.walker       131198                       # Total bandwidth to/from this memory (bytes/s)
system.mem_ctrls.bw_total::switch_cpus3.itb.walker        24384                       # Total bandwidth to/from this memory (bytes/s)
system.mem_ctrls.bw_total::switch_cpus3.inst      1601940                       # Total bandwidth to/from this memory (bytes/s)
system.mem_ctrls.bw_total::switch_cpus3.data     48667820                       # Total bandwidth to/from this memory (bytes/s)
system.mem_ctrls.bw_total::switch_cpus4.dtb.walker       124307                       # Total bandwidth to/from this memory (bytes/s)
system.mem_ctrls.bw_total::switch_cpus4.itb.walker        19613                       # Total bandwidth to/from this memory (bytes/s)
system.mem_ctrls.bw_total::switch_cpus4.inst      1403951                       # Total bandwidth to/from this memory (bytes/s)
system.mem_ctrls.bw_total::switch_cpus4.data     48767212                       # Total bandwidth to/from this memory (bytes/s)
system.mem_ctrls.bw_total::switch_cpus5.dtb.walker       175196                       # Total bandwidth to/from this memory (bytes/s)
system.mem_ctrls.bw_total::switch_cpus5.itb.walker        60696                       # Total bandwidth to/from this memory (bytes/s)
system.mem_ctrls.bw_total::switch_cpus5.inst      1593724                       # Total bandwidth to/from this memory (bytes/s)
system.mem_ctrls.bw_total::switch_cpus5.data     49266295                       # Total bandwidth to/from this memory (bytes/s)
system.mem_ctrls.bw_total::switch_cpus6.dtb.walker       223964                       # Total bandwidth to/from this memory (bytes/s)
system.mem_ctrls.bw_total::switch_cpus6.itb.walker       108139                       # Total bandwidth to/from this memory (bytes/s)
system.mem_ctrls.bw_total::switch_cpus6.inst      2715665                       # Total bandwidth to/from this memory (bytes/s)
system.mem_ctrls.bw_total::switch_cpus6.data     52098050                       # Total bandwidth to/from this memory (bytes/s)
system.mem_ctrls.bw_total::switch_cpus7.dtb.walker       151341                       # Total bandwidth to/from this memory (bytes/s)
system.mem_ctrls.bw_total::switch_cpus7.itb.walker        34721                       # Total bandwidth to/from this memory (bytes/s)
system.mem_ctrls.bw_total::switch_cpus7.inst      1965054                       # Total bandwidth to/from this memory (bytes/s)
system.mem_ctrls.bw_total::switch_cpus7.data     50353250                       # Total bandwidth to/from this memory (bytes/s)
system.mem_ctrls.bw_total::realview.ide         33926                       # Total bandwidth to/from this memory (bytes/s)
system.mem_ctrls.bw_total::l2.prefetcher    124855142                       # Total bandwidth to/from this memory (bytes/s)
system.mem_ctrls.bw_total::cpu0.inst             1060                       # Total bandwidth to/from this memory (bytes/s)
system.mem_ctrls.bw_total::cpu0.data              795                       # Total bandwidth to/from this memory (bytes/s)
system.mem_ctrls.bw_total::cpu6.inst              265                       # Total bandwidth to/from this memory (bytes/s)
system.mem_ctrls.bw_total::cpu6.data              530                       # Total bandwidth to/from this memory (bytes/s)
system.mem_ctrls.bw_total::cpu7.inst              795                       # Total bandwidth to/from this memory (bytes/s)
system.mem_ctrls.bw_total::cpu7.data              795                       # Total bandwidth to/from this memory (bytes/s)
system.mem_ctrls.bw_total::total            611807134                       # Total bandwidth to/from this memory (bytes/s)
system.mem_ctrls.readReqs                     2054413                       # Number of read requests accepted
system.mem_ctrls.writeReqs                     253873                       # Number of write requests accepted
system.mem_ctrls.readBursts                   2054413                       # Number of DRAM read bursts, including those serviced by the write queue
system.mem_ctrls.writeBursts                   253873                       # Number of DRAM write bursts, including those merged in the write queue
system.mem_ctrls.bytesReadDRAM              131367616                       # Total number of bytes read from DRAM
system.mem_ctrls.bytesReadWrQ                  114816                       # Total number of bytes read from write queue
system.mem_ctrls.bytesWritten                16246848                       # Total number of bytes written to DRAM
system.mem_ctrls.bytesReadSys               131482432                       # Total read bytes from the system interface side
system.mem_ctrls.bytesWrittenSys             16247872                       # Total written bytes from the system interface side
system.mem_ctrls.servicedByWrQ                   1794                       # Number of DRAM read bursts serviced by the write queue
system.mem_ctrls.mergedWrBursts                     0                       # Number of DRAM write bursts merged with an existing one
system.mem_ctrls.neitherReadNorWriteReqs        35818                       # Number of requests that are neither read nor write
system.mem_ctrls.perBankRdBursts::0            127324                       # Per bank write bursts
system.mem_ctrls.perBankRdBursts::1            158846                       # Per bank write bursts
system.mem_ctrls.perBankRdBursts::2            176252                       # Per bank write bursts
system.mem_ctrls.perBankRdBursts::3            157869                       # Per bank write bursts
system.mem_ctrls.perBankRdBursts::4            132508                       # Per bank write bursts
system.mem_ctrls.perBankRdBursts::5            107099                       # Per bank write bursts
system.mem_ctrls.perBankRdBursts::6            122922                       # Per bank write bursts
system.mem_ctrls.perBankRdBursts::7            118090                       # Per bank write bursts
system.mem_ctrls.perBankRdBursts::8            118146                       # Per bank write bursts
system.mem_ctrls.perBankRdBursts::9            122131                       # Per bank write bursts
system.mem_ctrls.perBankRdBursts::10           121754                       # Per bank write bursts
system.mem_ctrls.perBankRdBursts::11           119639                       # Per bank write bursts
system.mem_ctrls.perBankRdBursts::12           106636                       # Per bank write bursts
system.mem_ctrls.perBankRdBursts::13            91435                       # Per bank write bursts
system.mem_ctrls.perBankRdBursts::14           133547                       # Per bank write bursts
system.mem_ctrls.perBankRdBursts::15           138421                       # Per bank write bursts
system.mem_ctrls.perBankWrBursts::0             18947                       # Per bank write bursts
system.mem_ctrls.perBankWrBursts::1             17211                       # Per bank write bursts
system.mem_ctrls.perBankWrBursts::2             19808                       # Per bank write bursts
system.mem_ctrls.perBankWrBursts::3             21630                       # Per bank write bursts
system.mem_ctrls.perBankWrBursts::4             18167                       # Per bank write bursts
system.mem_ctrls.perBankWrBursts::5             14022                       # Per bank write bursts
system.mem_ctrls.perBankWrBursts::6             13511                       # Per bank write bursts
system.mem_ctrls.perBankWrBursts::7             13243                       # Per bank write bursts
system.mem_ctrls.perBankWrBursts::8             16642                       # Per bank write bursts
system.mem_ctrls.perBankWrBursts::9             13170                       # Per bank write bursts
system.mem_ctrls.perBankWrBursts::10            16712                       # Per bank write bursts
system.mem_ctrls.perBankWrBursts::11            14239                       # Per bank write bursts
system.mem_ctrls.perBankWrBursts::12            13980                       # Per bank write bursts
system.mem_ctrls.perBankWrBursts::13            10137                       # Per bank write bursts
system.mem_ctrls.perBankWrBursts::14            17606                       # Per bank write bursts
system.mem_ctrls.perBankWrBursts::15            14832                       # Per bank write bursts
system.mem_ctrls.numRdRetry                         0                       # Number of times read queue was full causing retry
system.mem_ctrls.numWrRetry                         0                       # Number of times write queue was full causing retry
system.mem_ctrls.totGap                  241467035500                       # Total gap between requests
system.mem_ctrls.readPktSize::0                     0                       # Read request sizes (log2)
system.mem_ctrls.readPktSize::1                     0                       # Read request sizes (log2)
system.mem_ctrls.readPktSize::2                     0                       # Read request sizes (log2)
system.mem_ctrls.readPktSize::3                     0                       # Read request sizes (log2)
system.mem_ctrls.readPktSize::4                     0                       # Read request sizes (log2)
system.mem_ctrls.readPktSize::5                     0                       # Read request sizes (log2)
system.mem_ctrls.readPktSize::6               2054413                       # Read request sizes (log2)
system.mem_ctrls.writePktSize::0                    0                       # Write request sizes (log2)
system.mem_ctrls.writePktSize::1                    0                       # Write request sizes (log2)
system.mem_ctrls.writePktSize::2                    0                       # Write request sizes (log2)
system.mem_ctrls.writePktSize::3                    0                       # Write request sizes (log2)
system.mem_ctrls.writePktSize::4                    0                       # Write request sizes (log2)
system.mem_ctrls.writePktSize::5                    0                       # Write request sizes (log2)
system.mem_ctrls.writePktSize::6               253873                       # Write request sizes (log2)
system.mem_ctrls.rdQLenPdf::0                 1250547                       # What read queue length does an incoming req see
system.mem_ctrls.rdQLenPdf::1                  408085                       # What read queue length does an incoming req see
system.mem_ctrls.rdQLenPdf::2                  127818                       # What read queue length does an incoming req see
system.mem_ctrls.rdQLenPdf::3                   68569                       # What read queue length does an incoming req see
system.mem_ctrls.rdQLenPdf::4                   47195                       # What read queue length does an incoming req see
system.mem_ctrls.rdQLenPdf::5                   37531                       # What read queue length does an incoming req see
system.mem_ctrls.rdQLenPdf::6                   30613                       # What read queue length does an incoming req see
system.mem_ctrls.rdQLenPdf::7                   25585                       # What read queue length does an incoming req see
system.mem_ctrls.rdQLenPdf::8                   20746                       # What read queue length does an incoming req see
system.mem_ctrls.rdQLenPdf::9                   12545                       # What read queue length does an incoming req see
system.mem_ctrls.rdQLenPdf::10                   8129                       # What read queue length does an incoming req see
system.mem_ctrls.rdQLenPdf::11                   6308                       # What read queue length does an incoming req see
system.mem_ctrls.rdQLenPdf::12                   3781                       # What read queue length does an incoming req see
system.mem_ctrls.rdQLenPdf::13                   2421                       # What read queue length does an incoming req see
system.mem_ctrls.rdQLenPdf::14                   1648                       # What read queue length does an incoming req see
system.mem_ctrls.rdQLenPdf::15                   1098                       # What read queue length does an incoming req see
system.mem_ctrls.rdQLenPdf::16                      0                       # What read queue length does an incoming req see
system.mem_ctrls.rdQLenPdf::17                      0                       # What read queue length does an incoming req see
system.mem_ctrls.rdQLenPdf::18                      0                       # What read queue length does an incoming req see
system.mem_ctrls.rdQLenPdf::19                      0                       # What read queue length does an incoming req see
system.mem_ctrls.rdQLenPdf::20                      0                       # What read queue length does an incoming req see
system.mem_ctrls.rdQLenPdf::21                      0                       # What read queue length does an incoming req see
system.mem_ctrls.rdQLenPdf::22                      0                       # What read queue length does an incoming req see
system.mem_ctrls.rdQLenPdf::23                      0                       # What read queue length does an incoming req see
system.mem_ctrls.rdQLenPdf::24                      0                       # What read queue length does an incoming req see
system.mem_ctrls.rdQLenPdf::25                      0                       # What read queue length does an incoming req see
system.mem_ctrls.rdQLenPdf::26                      0                       # What read queue length does an incoming req see
system.mem_ctrls.rdQLenPdf::27                      0                       # What read queue length does an incoming req see
system.mem_ctrls.rdQLenPdf::28                      0                       # What read queue length does an incoming req see
system.mem_ctrls.rdQLenPdf::29                      0                       # What read queue length does an incoming req see
system.mem_ctrls.rdQLenPdf::30                      0                       # What read queue length does an incoming req see
system.mem_ctrls.rdQLenPdf::31                      0                       # What read queue length does an incoming req see
system.mem_ctrls.wrQLenPdf::0                       1                       # What write queue length does an incoming req see
system.mem_ctrls.wrQLenPdf::1                       1                       # What write queue length does an incoming req see
system.mem_ctrls.wrQLenPdf::2                       1                       # What write queue length does an incoming req see
system.mem_ctrls.wrQLenPdf::3                       1                       # What write queue length does an incoming req see
system.mem_ctrls.wrQLenPdf::4                       1                       # What write queue length does an incoming req see
system.mem_ctrls.wrQLenPdf::5                       1                       # What write queue length does an incoming req see
system.mem_ctrls.wrQLenPdf::6                       1                       # What write queue length does an incoming req see
system.mem_ctrls.wrQLenPdf::7                       1                       # What write queue length does an incoming req see
system.mem_ctrls.wrQLenPdf::8                       1                       # What write queue length does an incoming req see
system.mem_ctrls.wrQLenPdf::9                       1                       # What write queue length does an incoming req see
system.mem_ctrls.wrQLenPdf::10                      1                       # What write queue length does an incoming req see
system.mem_ctrls.wrQLenPdf::11                      1                       # What write queue length does an incoming req see
system.mem_ctrls.wrQLenPdf::12                      1                       # What write queue length does an incoming req see
system.mem_ctrls.wrQLenPdf::13                      1                       # What write queue length does an incoming req see
system.mem_ctrls.wrQLenPdf::14                      1                       # What write queue length does an incoming req see
system.mem_ctrls.wrQLenPdf::15                   5256                       # What write queue length does an incoming req see
system.mem_ctrls.wrQLenPdf::16                   5581                       # What write queue length does an incoming req see
system.mem_ctrls.wrQLenPdf::17                  11193                       # What write queue length does an incoming req see
system.mem_ctrls.wrQLenPdf::18                  12748                       # What write queue length does an incoming req see
system.mem_ctrls.wrQLenPdf::19                  13554                       # What write queue length does an incoming req see
system.mem_ctrls.wrQLenPdf::20                  14118                       # What write queue length does an incoming req see
system.mem_ctrls.wrQLenPdf::21                  14551                       # What write queue length does an incoming req see
system.mem_ctrls.wrQLenPdf::22                  14947                       # What write queue length does an incoming req see
system.mem_ctrls.wrQLenPdf::23                  15339                       # What write queue length does an incoming req see
system.mem_ctrls.wrQLenPdf::24                  15640                       # What write queue length does an incoming req see
system.mem_ctrls.wrQLenPdf::25                  15919                       # What write queue length does an incoming req see
system.mem_ctrls.wrQLenPdf::26                  16218                       # What write queue length does an incoming req see
system.mem_ctrls.wrQLenPdf::27                  16487                       # What write queue length does an incoming req see
system.mem_ctrls.wrQLenPdf::28                  16951                       # What write queue length does an incoming req see
system.mem_ctrls.wrQLenPdf::29                  16362                       # What write queue length does an incoming req see
system.mem_ctrls.wrQLenPdf::30                  16199                       # What write queue length does an incoming req see
system.mem_ctrls.wrQLenPdf::31                  15986                       # What write queue length does an incoming req see
system.mem_ctrls.wrQLenPdf::32                  15539                       # What write queue length does an incoming req see
system.mem_ctrls.wrQLenPdf::33                    467                       # What write queue length does an incoming req see
system.mem_ctrls.wrQLenPdf::34                    247                       # What write queue length does an incoming req see
system.mem_ctrls.wrQLenPdf::35                    148                       # What write queue length does an incoming req see
system.mem_ctrls.wrQLenPdf::36                    100                       # What write queue length does an incoming req see
system.mem_ctrls.wrQLenPdf::37                     81                       # What write queue length does an incoming req see
system.mem_ctrls.wrQLenPdf::38                     59                       # What write queue length does an incoming req see
system.mem_ctrls.wrQLenPdf::39                     44                       # What write queue length does an incoming req see
system.mem_ctrls.wrQLenPdf::40                     29                       # What write queue length does an incoming req see
system.mem_ctrls.wrQLenPdf::41                     22                       # What write queue length does an incoming req see
system.mem_ctrls.wrQLenPdf::42                     17                       # What write queue length does an incoming req see
system.mem_ctrls.wrQLenPdf::43                     13                       # What write queue length does an incoming req see
system.mem_ctrls.wrQLenPdf::44                     12                       # What write queue length does an incoming req see
system.mem_ctrls.wrQLenPdf::45                     10                       # What write queue length does an incoming req see
system.mem_ctrls.wrQLenPdf::46                      7                       # What write queue length does an incoming req see
system.mem_ctrls.wrQLenPdf::47                      7                       # What write queue length does an incoming req see
system.mem_ctrls.wrQLenPdf::48                      2                       # What write queue length does an incoming req see
system.mem_ctrls.wrQLenPdf::49                      1                       # What write queue length does an incoming req see
system.mem_ctrls.wrQLenPdf::50                      1                       # What write queue length does an incoming req see
system.mem_ctrls.wrQLenPdf::51                      2                       # What write queue length does an incoming req see
system.mem_ctrls.wrQLenPdf::52                      1                       # What write queue length does an incoming req see
system.mem_ctrls.wrQLenPdf::53                      0                       # What write queue length does an incoming req see
system.mem_ctrls.wrQLenPdf::54                      0                       # What write queue length does an incoming req see
system.mem_ctrls.wrQLenPdf::55                      0                       # What write queue length does an incoming req see
system.mem_ctrls.wrQLenPdf::56                      0                       # What write queue length does an incoming req see
system.mem_ctrls.wrQLenPdf::57                      0                       # What write queue length does an incoming req see
system.mem_ctrls.wrQLenPdf::58                      0                       # What write queue length does an incoming req see
system.mem_ctrls.wrQLenPdf::59                      0                       # What write queue length does an incoming req see
system.mem_ctrls.wrQLenPdf::60                      0                       # What write queue length does an incoming req see
system.mem_ctrls.wrQLenPdf::61                      0                       # What write queue length does an incoming req see
system.mem_ctrls.wrQLenPdf::62                      0                       # What write queue length does an incoming req see
system.mem_ctrls.wrQLenPdf::63                      0                       # What write queue length does an incoming req see
system.mem_ctrls.bytesPerActivate::samples      1141044                       # Bytes accessed per row activation
system.mem_ctrls.bytesPerActivate::mean    129.366608                       # Bytes accessed per row activation
system.mem_ctrls.bytesPerActivate::gmean   100.355392                       # Bytes accessed per row activation
system.mem_ctrls.bytesPerActivate::stdev   136.974784                       # Bytes accessed per row activation
system.mem_ctrls.bytesPerActivate::0-127       657707     57.64%     57.64% # Bytes accessed per row activation
system.mem_ctrls.bytesPerActivate::128-255       360698     31.61%     89.25% # Bytes accessed per row activation
system.mem_ctrls.bytesPerActivate::256-383        77886      6.83%     96.08% # Bytes accessed per row activation
system.mem_ctrls.bytesPerActivate::384-511        13480      1.18%     97.26% # Bytes accessed per row activation
system.mem_ctrls.bytesPerActivate::512-639         9188      0.81%     98.06% # Bytes accessed per row activation
system.mem_ctrls.bytesPerActivate::640-767         4993      0.44%     98.50% # Bytes accessed per row activation
system.mem_ctrls.bytesPerActivate::768-895         2848      0.25%     98.75% # Bytes accessed per row activation
system.mem_ctrls.bytesPerActivate::896-1023         2015      0.18%     98.93% # Bytes accessed per row activation
system.mem_ctrls.bytesPerActivate::1024-1151        12229      1.07%    100.00% # Bytes accessed per row activation
system.mem_ctrls.bytesPerActivate::total      1141044                       # Bytes accessed per row activation
system.mem_ctrls.rdPerTurnAround::samples        15103                       # Reads before turning the bus around for writes
system.mem_ctrls.rdPerTurnAround::mean     135.902006                       # Reads before turning the bus around for writes
system.mem_ctrls.rdPerTurnAround::gmean     92.103951                       # Reads before turning the bus around for writes
system.mem_ctrls.rdPerTurnAround::stdev    199.756224                       # Reads before turning the bus around for writes
system.mem_ctrls.rdPerTurnAround::0-1023        15101     99.99%     99.99% # Reads before turning the bus around for writes
system.mem_ctrls.rdPerTurnAround::1024-2047            1      0.01%     99.99% # Reads before turning the bus around for writes
system.mem_ctrls.rdPerTurnAround::19456-20479            1      0.01%    100.00% # Reads before turning the bus around for writes
system.mem_ctrls.rdPerTurnAround::total         15103                       # Reads before turning the bus around for writes
system.mem_ctrls.wrPerTurnAround::samples        15103                       # Writes before turning the bus around for reads
system.mem_ctrls.wrPerTurnAround::mean      16.808382                       # Writes before turning the bus around for reads
system.mem_ctrls.wrPerTurnAround::gmean     16.771250                       # Writes before turning the bus around for reads
system.mem_ctrls.wrPerTurnAround::stdev      1.154341                       # Writes before turning the bus around for reads
system.mem_ctrls.wrPerTurnAround::16             9441     62.51%     62.51% # Writes before turning the bus around for reads
system.mem_ctrls.wrPerTurnAround::17              319      2.11%     64.62% # Writes before turning the bus around for reads
system.mem_ctrls.wrPerTurnAround::18             4608     30.51%     95.13% # Writes before turning the bus around for reads
system.mem_ctrls.wrPerTurnAround::19              514      3.40%     98.54% # Writes before turning the bus around for reads
system.mem_ctrls.wrPerTurnAround::20              116      0.77%     99.30% # Writes before turning the bus around for reads
system.mem_ctrls.wrPerTurnAround::21               50      0.33%     99.64% # Writes before turning the bus around for reads
system.mem_ctrls.wrPerTurnAround::22               25      0.17%     99.80% # Writes before turning the bus around for reads
system.mem_ctrls.wrPerTurnAround::23               11      0.07%     99.87% # Writes before turning the bus around for reads
system.mem_ctrls.wrPerTurnAround::24                9      0.06%     99.93% # Writes before turning the bus around for reads
system.mem_ctrls.wrPerTurnAround::25                2      0.01%     99.95% # Writes before turning the bus around for reads
system.mem_ctrls.wrPerTurnAround::26                2      0.01%     99.96% # Writes before turning the bus around for reads
system.mem_ctrls.wrPerTurnAround::27                3      0.02%     99.98% # Writes before turning the bus around for reads
system.mem_ctrls.wrPerTurnAround::31                1      0.01%     99.99% # Writes before turning the bus around for reads
system.mem_ctrls.wrPerTurnAround::32                1      0.01%     99.99% # Writes before turning the bus around for reads
system.mem_ctrls.wrPerTurnAround::33                1      0.01%    100.00% # Writes before turning the bus around for reads
system.mem_ctrls.wrPerTurnAround::total         15103                       # Writes before turning the bus around for reads
system.mem_ctrls.totQLat                  48318102719                       # Total ticks spent queuing
system.mem_ctrls.totMemAccLat             86804708969                       # Total ticks spent from burst creation until serviced by the DRAM
system.mem_ctrls.totBusLat                10263095000                       # Total ticks spent in databus transfers
system.mem_ctrls.avgQLat                     23539.73                       # Average queueing delay per DRAM burst
system.mem_ctrls.avgBusLat                    5000.00                       # Average bus latency per DRAM burst
system.mem_ctrls.avgMemAccLat                42289.73                       # Average memory access latency per DRAM burst
system.mem_ctrls.avgRdBW                       544.04                       # Average DRAM read bandwidth in MiByte/s
system.mem_ctrls.avgWrBW                        67.28                       # Average achieved write bandwidth in MiByte/s
system.mem_ctrls.avgRdBWSys                    544.51                       # Average system read bandwidth in MiByte/s
system.mem_ctrls.avgWrBWSys                     67.29                       # Average system write bandwidth in MiByte/s
system.mem_ctrls.peakBW                      12800.00                       # Theoretical peak bandwidth in MiByte/s
system.mem_ctrls.busUtil                         4.78                       # Data bus utilization in percentage
system.mem_ctrls.busUtilRead                     4.25                       # Data bus utilization in percentage for reads
system.mem_ctrls.busUtilWrite                    0.53                       # Data bus utilization in percentage for writes
system.mem_ctrls.avgRdQLen                       1.43                       # Average read queue length when enqueuing
system.mem_ctrls.avgWrQLen                      24.91                       # Average write queue length when enqueuing
system.mem_ctrls.readRowHits                  1095447                       # Number of row buffer hits during reads
system.mem_ctrls.writeRowHits                   69972                       # Number of row buffer hits during writes
system.mem_ctrls.readRowHitRate                 53.37                       # Row buffer hit rate for reads
system.mem_ctrls.writeRowHitRate                27.56                       # Row buffer hit rate for writes
system.mem_ctrls.avgGap                     104608.80                       # Average gap between requests
system.mem_ctrls.pageHitRate                    50.53                       # Row buffer hit rate, read and write combined
system.mem_ctrls.memoryStateTime::IDLE     3006284802                       # Time in different power states
system.mem_ctrls.memoryStateTime::REF      8062860000                       # Time in different power states
system.mem_ctrls.memoryStateTime::PRE_PDN            0                       # Time in different power states
system.mem_ctrls.memoryStateTime::ACT    230390530698                       # Time in different power states
system.mem_ctrls.memoryStateTime::ACT_PDN            0                       # Time in different power states
system.mem_ctrls.actEnergy::0              4654155240                       # Energy for activate commands per rank (pJ)
system.mem_ctrls.actEnergy::1              3971993760                       # Energy for activate commands per rank (pJ)
system.mem_ctrls.preEnergy::0              2539469625                       # Energy for precharge commands per rank (pJ)
system.mem_ctrls.preEnergy::1              2167258500                       # Energy for precharge commands per rank (pJ)
system.mem_ctrls.readEnergy::0             8586895200                       # Energy for read commands per rank (pJ)
system.mem_ctrls.readEnergy::1             7423127400                       # Energy for read commands per rank (pJ)
system.mem_ctrls.writeEnergy::0             884772720                       # Energy for write commands per rank (pJ)
system.mem_ctrls.writeEnergy::1             760220640                       # Energy for write commands per rank (pJ)
system.mem_ctrls.refreshEnergy::0         15770954160                       # Energy for refresh commands per rank (pJ)
system.mem_ctrls.refreshEnergy::1         15770954160                       # Energy for refresh commands per rank (pJ)
system.mem_ctrls.actBackEnergy::0        159183083475                       # Energy for active background per rank (pJ)
system.mem_ctrls.actBackEnergy::1        157704457590                       # Energy for active background per rank (pJ)
system.mem_ctrls.preBackEnergy::0          5241511500                       # Energy for precharge background per rank (pJ)
system.mem_ctrls.preBackEnergy::1          6538551750                       # Energy for precharge background per rank (pJ)
system.mem_ctrls.totalEnergy::0          196860841920                       # Total energy per rank (pJ)
system.mem_ctrls.totalEnergy::1          194336563800                       # Total energy per rank (pJ)
system.mem_ctrls.averagePower::0           815.294956                       # Core power per rank (mW)
system.mem_ctrls.averagePower::1           804.840713                       # Core power per rank (mW)
system.cpu_voltage_domain.voltage                   1                       # Voltage in Volts
system.cpu_clk_domain.clock                       500                       # Clock period in ticks
system.tol2bus.trans_dist::ReadReq            6394918                       # Transaction distribution
system.tol2bus.trans_dist::ReadResp           6394860                       # Transaction distribution
system.tol2bus.trans_dist::ReadRespWithInvalidate           58                       # Transaction distribution
system.tol2bus.trans_dist::WriteReq              2928                       # Transaction distribution
system.tol2bus.trans_dist::WriteResp             2928                       # Transaction distribution
system.tol2bus.trans_dist::Writeback           597453                       # Transaction distribution
system.tol2bus.trans_dist::HardPFReq          1018071                       # Transaction distribution
system.tol2bus.trans_dist::WriteInvalidateReq          128                       # Transaction distribution
system.tol2bus.trans_dist::UpgradeReq          203824                       # Transaction distribution
system.tol2bus.trans_dist::SCUpgradeReq         38850                       # Transaction distribution
system.tol2bus.trans_dist::UpgradeResp         242674                       # Transaction distribution
system.tol2bus.trans_dist::SCUpgradeFailReq         1188                       # Transaction distribution
system.tol2bus.trans_dist::UpgradeFailResp         1188                       # Transaction distribution
system.tol2bus.trans_dist::ReadExReq           311933                       # Transaction distribution
system.tol2bus.trans_dist::ReadExResp          311933                       # Transaction distribution
system.tol2bus.pkt_count_system.cpu0.icache.mem_side::system.l2.cpu_side       161693                       # Packet count per connected master and slave (bytes)
system.tol2bus.pkt_count_system.cpu0.dcache.mem_side::system.l2.cpu_side      1078656                       # Packet count per connected master and slave (bytes)
system.tol2bus.pkt_count_system.cpu0.itb.walker.dma::system.l2.cpu_side        12683                       # Packet count per connected master and slave (bytes)
system.tol2bus.pkt_count_system.cpu0.dtb.walker.dma::system.l2.cpu_side       296561                       # Packet count per connected master and slave (bytes)
system.tol2bus.pkt_count_system.cpu1.icache.mem_side::system.l2.cpu_side       242318                       # Packet count per connected master and slave (bytes)
system.tol2bus.pkt_count_system.cpu1.dcache.mem_side::system.l2.cpu_side       983470                       # Packet count per connected master and slave (bytes)
system.tol2bus.pkt_count_system.cpu1.itb.walker.dma::system.l2.cpu_side        15852                       # Packet count per connected master and slave (bytes)
system.tol2bus.pkt_count_system.cpu1.dtb.walker.dma::system.l2.cpu_side       300256                       # Packet count per connected master and slave (bytes)
system.tol2bus.pkt_count_system.cpu2.icache.mem_side::system.l2.cpu_side       798380                       # Packet count per connected master and slave (bytes)
system.tol2bus.pkt_count_system.cpu2.dcache.mem_side::system.l2.cpu_side      1371772                       # Packet count per connected master and slave (bytes)
system.tol2bus.pkt_count_system.cpu2.itb.walker.dma::system.l2.cpu_side        25804                       # Packet count per connected master and slave (bytes)
system.tol2bus.pkt_count_system.cpu2.dtb.walker.dma::system.l2.cpu_side       360804                       # Packet count per connected master and slave (bytes)
system.tol2bus.pkt_count_system.cpu3.icache.mem_side::system.l2.cpu_side       194206                       # Packet count per connected master and slave (bytes)
system.tol2bus.pkt_count_system.cpu3.dcache.mem_side::system.l2.cpu_side       938794                       # Packet count per connected master and slave (bytes)
system.tol2bus.pkt_count_system.cpu3.itb.walker.dma::system.l2.cpu_side         9324                       # Packet count per connected master and slave (bytes)
system.tol2bus.pkt_count_system.cpu3.dtb.walker.dma::system.l2.cpu_side       291677                       # Packet count per connected master and slave (bytes)
system.tol2bus.pkt_count_system.cpu4.icache.mem_side::system.l2.cpu_side       195018                       # Packet count per connected master and slave (bytes)
system.tol2bus.pkt_count_system.cpu4.dcache.mem_side::system.l2.cpu_side       942083                       # Packet count per connected master and slave (bytes)
system.tol2bus.pkt_count_system.cpu4.itb.walker.dma::system.l2.cpu_side         9377                       # Packet count per connected master and slave (bytes)
system.tol2bus.pkt_count_system.cpu4.dtb.walker.dma::system.l2.cpu_side       288725                       # Packet count per connected master and slave (bytes)
system.tol2bus.pkt_count_system.cpu5.icache.mem_side::system.l2.cpu_side       251998                       # Packet count per connected master and slave (bytes)
system.tol2bus.pkt_count_system.cpu5.dcache.mem_side::system.l2.cpu_side      1014935                       # Packet count per connected master and slave (bytes)
system.tol2bus.pkt_count_system.cpu5.itb.walker.dma::system.l2.cpu_side        14288                       # Packet count per connected master and slave (bytes)
system.tol2bus.pkt_count_system.cpu5.dtb.walker.dma::system.l2.cpu_side       299114                       # Packet count per connected master and slave (bytes)
system.tol2bus.pkt_count_system.cpu6.icache.mem_side::system.l2.cpu_side       467180                       # Packet count per connected master and slave (bytes)
system.tol2bus.pkt_count_system.cpu6.dcache.mem_side::system.l2.cpu_side      1312706                       # Packet count per connected master and slave (bytes)
system.tol2bus.pkt_count_system.cpu6.itb.walker.dma::system.l2.cpu_side        26137                       # Packet count per connected master and slave (bytes)
system.tol2bus.pkt_count_system.cpu6.dtb.walker.dma::system.l2.cpu_side       317275                       # Packet count per connected master and slave (bytes)
system.tol2bus.pkt_count_system.cpu7.icache.mem_side::system.l2.cpu_side       295772                       # Packet count per connected master and slave (bytes)
system.tol2bus.pkt_count_system.cpu7.dcache.mem_side::system.l2.cpu_side      1027713                       # Packet count per connected master and slave (bytes)
system.tol2bus.pkt_count_system.cpu7.itb.walker.dma::system.l2.cpu_side        18441                       # Packet count per connected master and slave (bytes)
system.tol2bus.pkt_count_system.cpu7.dtb.walker.dma::system.l2.cpu_side       303465                       # Packet count per connected master and slave (bytes)
system.tol2bus.pkt_count::total              13866477                       # Packet count per connected master and slave (bytes)
system.tol2bus.pkt_size_system.cpu0.icache.mem_side::system.l2.cpu_side      5174144                       # Cumulative packet size per connected master and slave (bytes)
system.tol2bus.pkt_size_system.cpu0.dcache.mem_side::system.l2.cpu_side     34865563                       # Cumulative packet size per connected master and slave (bytes)
system.tol2bus.pkt_size_system.cpu0.itb.walker.dma::system.l2.cpu_side        23272                       # Cumulative packet size per connected master and slave (bytes)
system.tol2bus.pkt_size_system.cpu0.dtb.walker.dma::system.l2.cpu_side       584972                       # Cumulative packet size per connected master and slave (bytes)
system.tol2bus.pkt_size_system.cpu1.icache.mem_side::system.l2.cpu_side      7754176                       # Cumulative packet size per connected master and slave (bytes)
system.tol2bus.pkt_size_system.cpu1.dcache.mem_side::system.l2.cpu_side     30459852                       # Cumulative packet size per connected master and slave (bytes)
system.tol2bus.pkt_size_system.cpu1.itb.walker.dma::system.l2.cpu_side        21660                       # Cumulative packet size per connected master and slave (bytes)
system.tol2bus.pkt_size_system.cpu1.dtb.walker.dma::system.l2.cpu_side       581228                       # Cumulative packet size per connected master and slave (bytes)
system.tol2bus.pkt_size_system.cpu2.icache.mem_side::system.l2.cpu_side     25547584                       # Cumulative packet size per connected master and slave (bytes)
system.tol2bus.pkt_size_system.cpu2.dcache.mem_side::system.l2.cpu_side     45036964                       # Cumulative packet size per connected master and slave (bytes)
system.tol2bus.pkt_size_system.cpu2.itb.walker.dma::system.l2.cpu_side        38944                       # Cumulative packet size per connected master and slave (bytes)
system.tol2bus.pkt_size_system.cpu2.dtb.walker.dma::system.l2.cpu_side       677344                       # Cumulative packet size per connected master and slave (bytes)
system.tol2bus.pkt_size_system.cpu3.icache.mem_side::system.l2.cpu_side      6214592                       # Cumulative packet size per connected master and slave (bytes)
system.tol2bus.pkt_size_system.cpu3.dcache.mem_side::system.l2.cpu_side     29193652                       # Cumulative packet size per connected master and slave (bytes)
system.tol2bus.pkt_size_system.cpu3.itb.walker.dma::system.l2.cpu_side        15500                       # Cumulative packet size per connected master and slave (bytes)
system.tol2bus.pkt_size_system.cpu3.dtb.walker.dma::system.l2.cpu_side       576432                       # Cumulative packet size per connected master and slave (bytes)
system.tol2bus.pkt_size_system.cpu4.icache.mem_side::system.l2.cpu_side      6240512                       # Cumulative packet size per connected master and slave (bytes)
system.tol2bus.pkt_size_system.cpu4.dcache.mem_side::system.l2.cpu_side     29407820                       # Cumulative packet size per connected master and slave (bytes)
system.tol2bus.pkt_size_system.cpu4.itb.walker.dma::system.l2.cpu_side        15296                       # Cumulative packet size per connected master and slave (bytes)
system.tol2bus.pkt_size_system.cpu4.dtb.walker.dma::system.l2.cpu_side       567916                       # Cumulative packet size per connected master and slave (bytes)
system.tol2bus.pkt_size_system.cpu5.icache.mem_side::system.l2.cpu_side      8063488                       # Cumulative packet size per connected master and slave (bytes)
system.tol2bus.pkt_size_system.cpu5.dcache.mem_side::system.l2.cpu_side     32113960                       # Cumulative packet size per connected master and slave (bytes)
system.tol2bus.pkt_size_system.cpu5.itb.walker.dma::system.l2.cpu_side        26168                       # Cumulative packet size per connected master and slave (bytes)
system.tol2bus.pkt_size_system.cpu5.dtb.walker.dma::system.l2.cpu_side       592196                       # Cumulative packet size per connected master and slave (bytes)
system.tol2bus.pkt_size_system.cpu6.icache.mem_side::system.l2.cpu_side     14949312                       # Cumulative packet size per connected master and slave (bytes)
system.tol2bus.pkt_size_system.cpu6.dcache.mem_side::system.l2.cpu_side     43104648                       # Cumulative packet size per connected master and slave (bytes)
system.tol2bus.pkt_size_system.cpu6.itb.walker.dma::system.l2.cpu_side        40480                       # Cumulative packet size per connected master and slave (bytes)
system.tol2bus.pkt_size_system.cpu6.dtb.walker.dma::system.l2.cpu_side       609304                       # Cumulative packet size per connected master and slave (bytes)
system.tol2bus.pkt_size_system.cpu7.icache.mem_side::system.l2.cpu_side      9464640                       # Cumulative packet size per connected master and slave (bytes)
system.tol2bus.pkt_size_system.cpu7.dcache.mem_side::system.l2.cpu_side     32188900                       # Cumulative packet size per connected master and slave (bytes)
system.tol2bus.pkt_size_system.cpu7.itb.walker.dma::system.l2.cpu_side        25200                       # Cumulative packet size per connected master and slave (bytes)
system.tol2bus.pkt_size_system.cpu7.dtb.walker.dma::system.l2.cpu_side       584016                       # Cumulative packet size per connected master and slave (bytes)
system.tol2bus.pkt_size::total              364759735                       # Cumulative packet size per connected master and slave (bytes)
system.tol2bus.snoops                         1656459                       # Total snoops (count)
system.tol2bus.snoop_fanout::samples          8579502                       # Request fanout histogram
system.tol2bus.snoop_fanout::mean           47.118678                       # Request fanout histogram
system.tol2bus.snoop_fanout::stdev           0.323410                       # Request fanout histogram
system.tol2bus.snoop_fanout::underflows             0      0.00%      0.00% # Request fanout histogram
system.tol2bus.snoop_fanout::0                      0      0.00%      0.00% # Request fanout histogram
system.tol2bus.snoop_fanout::1                      0      0.00%      0.00% # Request fanout histogram
system.tol2bus.snoop_fanout::2                      0      0.00%      0.00% # Request fanout histogram
system.tol2bus.snoop_fanout::3                      0      0.00%      0.00% # Request fanout histogram
system.tol2bus.snoop_fanout::4                      0      0.00%      0.00% # Request fanout histogram
system.tol2bus.snoop_fanout::5                      0      0.00%      0.00% # Request fanout histogram
system.tol2bus.snoop_fanout::6                      0      0.00%      0.00% # Request fanout histogram
system.tol2bus.snoop_fanout::7                      0      0.00%      0.00% # Request fanout histogram
system.tol2bus.snoop_fanout::8                      0      0.00%      0.00% # Request fanout histogram
system.tol2bus.snoop_fanout::9                      0      0.00%      0.00% # Request fanout histogram
system.tol2bus.snoop_fanout::10                     0      0.00%      0.00% # Request fanout histogram
system.tol2bus.snoop_fanout::11                     0      0.00%      0.00% # Request fanout histogram
system.tol2bus.snoop_fanout::12                     0      0.00%      0.00% # Request fanout histogram
system.tol2bus.snoop_fanout::13                     0      0.00%      0.00% # Request fanout histogram
system.tol2bus.snoop_fanout::14                     0      0.00%      0.00% # Request fanout histogram
system.tol2bus.snoop_fanout::15                     0      0.00%      0.00% # Request fanout histogram
system.tol2bus.snoop_fanout::16                     0      0.00%      0.00% # Request fanout histogram
system.tol2bus.snoop_fanout::17                     0      0.00%      0.00% # Request fanout histogram
system.tol2bus.snoop_fanout::18                     0      0.00%      0.00% # Request fanout histogram
system.tol2bus.snoop_fanout::19                     0      0.00%      0.00% # Request fanout histogram
system.tol2bus.snoop_fanout::20                     0      0.00%      0.00% # Request fanout histogram
system.tol2bus.snoop_fanout::21                     0      0.00%      0.00% # Request fanout histogram
system.tol2bus.snoop_fanout::22                     0      0.00%      0.00% # Request fanout histogram
system.tol2bus.snoop_fanout::23                     0      0.00%      0.00% # Request fanout histogram
system.tol2bus.snoop_fanout::24                     0      0.00%      0.00% # Request fanout histogram
system.tol2bus.snoop_fanout::25                     0      0.00%      0.00% # Request fanout histogram
system.tol2bus.snoop_fanout::26                     0      0.00%      0.00% # Request fanout histogram
system.tol2bus.snoop_fanout::27                     0      0.00%      0.00% # Request fanout histogram
system.tol2bus.snoop_fanout::28                     0      0.00%      0.00% # Request fanout histogram
system.tol2bus.snoop_fanout::29                     0      0.00%      0.00% # Request fanout histogram
system.tol2bus.snoop_fanout::30                     0      0.00%      0.00% # Request fanout histogram
system.tol2bus.snoop_fanout::31                     0      0.00%      0.00% # Request fanout histogram
system.tol2bus.snoop_fanout::32                     0      0.00%      0.00% # Request fanout histogram
system.tol2bus.snoop_fanout::33                     0      0.00%      0.00% # Request fanout histogram
system.tol2bus.snoop_fanout::34                     0      0.00%      0.00% # Request fanout histogram
system.tol2bus.snoop_fanout::35                     0      0.00%      0.00% # Request fanout histogram
system.tol2bus.snoop_fanout::36                     0      0.00%      0.00% # Request fanout histogram
system.tol2bus.snoop_fanout::37                     0      0.00%      0.00% # Request fanout histogram
system.tol2bus.snoop_fanout::38                     0      0.00%      0.00% # Request fanout histogram
system.tol2bus.snoop_fanout::39                     0      0.00%      0.00% # Request fanout histogram
system.tol2bus.snoop_fanout::40                     0      0.00%      0.00% # Request fanout histogram
system.tol2bus.snoop_fanout::41                     0      0.00%      0.00% # Request fanout histogram
system.tol2bus.snoop_fanout::42                     0      0.00%      0.00% # Request fanout histogram
system.tol2bus.snoop_fanout::43                     0      0.00%      0.00% # Request fanout histogram
system.tol2bus.snoop_fanout::44                     0      0.00%      0.00% # Request fanout histogram
system.tol2bus.snoop_fanout::45                     0      0.00%      0.00% # Request fanout histogram
system.tol2bus.snoop_fanout::46                     0      0.00%      0.00% # Request fanout histogram
system.tol2bus.snoop_fanout::47               7561301     88.13%     88.13% # Request fanout histogram
system.tol2bus.snoop_fanout::48               1018201     11.87%    100.00% # Request fanout histogram
system.tol2bus.snoop_fanout::overflows              0      0.00%    100.00% # Request fanout histogram
system.tol2bus.snoop_fanout::min_value             47                       # Request fanout histogram
system.tol2bus.snoop_fanout::max_value             48                       # Request fanout histogram
system.tol2bus.snoop_fanout::total            8579502                       # Request fanout histogram
system.tol2bus.reqLayer0.occupancy         4393439460                       # Layer occupancy (ticks)
system.tol2bus.reqLayer0.utilization              1.8                       # Layer utilization (%)
system.tol2bus.snoopLayer0.occupancy             3000                       # Layer occupancy (ticks)
system.tol2bus.snoopLayer0.utilization            0.0                       # Layer utilization (%)
system.tol2bus.respLayer0.occupancy         122204229                       # Layer occupancy (ticks)
system.tol2bus.respLayer0.utilization             0.1                       # Layer utilization (%)
system.tol2bus.respLayer1.occupancy         792412838                       # Layer occupancy (ticks)
system.tol2bus.respLayer1.utilization             0.3                       # Layer utilization (%)
system.tol2bus.respLayer2.occupancy           6898919                       # Layer occupancy (ticks)
system.tol2bus.respLayer2.utilization             0.0                       # Layer utilization (%)
system.tol2bus.respLayer3.occupancy         150555431                       # Layer occupancy (ticks)
system.tol2bus.respLayer3.utilization             0.1                       # Layer utilization (%)
system.tol2bus.respLayer6.occupancy         183189138                       # Layer occupancy (ticks)
system.tol2bus.respLayer6.utilization             0.1                       # Layer utilization (%)
system.tol2bus.respLayer7.occupancy         757013572                       # Layer occupancy (ticks)
system.tol2bus.respLayer7.utilization             0.3                       # Layer utilization (%)
system.tol2bus.respLayer8.occupancy          10458198                       # Layer occupancy (ticks)
system.tol2bus.respLayer8.utilization             0.0                       # Layer utilization (%)
system.tol2bus.respLayer9.occupancy         155145195                       # Layer occupancy (ticks)
system.tol2bus.respLayer9.utilization             0.1                       # Layer utilization (%)
system.tol2bus.respLayer12.occupancy        600931278                       # Layer occupancy (ticks)
system.tol2bus.respLayer12.utilization            0.2                       # Layer utilization (%)
system.tol2bus.respLayer13.occupancy        993249923                       # Layer occupancy (ticks)
system.tol2bus.respLayer13.utilization            0.4                       # Layer utilization (%)
system.tol2bus.respLayer14.occupancy         16097180                       # Layer occupancy (ticks)
system.tol2bus.respLayer14.utilization            0.0                       # Layer utilization (%)
system.tol2bus.respLayer15.occupancy        191700888                       # Layer occupancy (ticks)
system.tol2bus.respLayer15.utilization            0.1                       # Layer utilization (%)
system.tol2bus.respLayer18.occupancy        146957793                       # Layer occupancy (ticks)
system.tol2bus.respLayer18.utilization            0.1                       # Layer utilization (%)
system.tol2bus.respLayer19.occupancy        723209714                       # Layer occupancy (ticks)
system.tol2bus.respLayer19.utilization            0.3                       # Layer utilization (%)
system.tol2bus.respLayer20.occupancy          5476438                       # Layer occupancy (ticks)
system.tol2bus.respLayer20.utilization            0.0                       # Layer utilization (%)
system.tol2bus.respLayer21.occupancy        147760960                       # Layer occupancy (ticks)
system.tol2bus.respLayer21.utilization            0.1                       # Layer utilization (%)
system.tol2bus.respLayer24.occupancy        147488453                       # Layer occupancy (ticks)
system.tol2bus.respLayer24.utilization            0.1                       # Layer utilization (%)
system.tol2bus.respLayer25.occupancy        725067488                       # Layer occupancy (ticks)
system.tol2bus.respLayer25.utilization            0.3                       # Layer utilization (%)
system.tol2bus.respLayer26.occupancy          5577947                       # Layer occupancy (ticks)
system.tol2bus.respLayer26.utilization            0.0                       # Layer utilization (%)
system.tol2bus.respLayer27.occupancy        146933972                       # Layer occupancy (ticks)
system.tol2bus.respLayer27.utilization            0.1                       # Layer utilization (%)
system.tol2bus.respLayer30.occupancy        190392436                       # Layer occupancy (ticks)
system.tol2bus.respLayer30.utilization            0.1                       # Layer utilization (%)
system.tol2bus.respLayer31.occupancy        766468921                       # Layer occupancy (ticks)
system.tol2bus.respLayer31.utilization            0.3                       # Layer utilization (%)
system.tol2bus.respLayer32.occupancy          7801920                       # Layer occupancy (ticks)
system.tol2bus.respLayer32.utilization            0.0                       # Layer utilization (%)
system.tol2bus.respLayer33.occupancy        151286469                       # Layer occupancy (ticks)
system.tol2bus.respLayer33.utilization            0.1                       # Layer utilization (%)
[...]
system.cpu7.dcache.StoreCondFailReq_mshr_miss_latency::switch_cpus7.data       950500                       # number of StoreCondFailReq MSHR miss cycles
system.cpu7.dcache.StoreCondFailReq_mshr_miss_latency::total       950500                       # number of StoreCondFailReq MSHR miss cycles
system.cpu7.dcache.demand_mshr_miss_latency::switch_cpus7.data   4426772060                       # number of demand (read+write) MSHR miss cycles
system.cpu7.dcache.demand_mshr_miss_latency::total   4426772060                       # number of demand (read+write) MSHR miss cycles
system.cpu7.dcache.overall_mshr_miss_latency::switch_cpus7.data  16364820548                       # number of overall MSHR miss cycles
system.cpu7.dcache.overall_mshr_miss_latency::total  16364820548                       # number of overall MSHR miss cycles
system.cpu7.dcache.ReadReq_mshr_uncacheable_latency::switch_cpus7.data     12093501                       # number of ReadReq MSHR uncacheable cycles
system.cpu7.dcache.ReadReq_mshr_uncacheable_latency::total     12093501                       # number of ReadReq MSHR uncacheable cycles
system.cpu7.dcache.WriteReq_mshr_uncacheable_latency::switch_cpus7.data      9689497                       # number of WriteReq MSHR uncacheable cycles
system.cpu7.dcache.WriteReq_mshr_uncacheable_latency::total      9689497                       # number of WriteReq MSHR uncacheable cycles
system.cpu7.dcache.overall_mshr_uncacheable_latency::switch_cpus7.data     21782998                       # number of overall MSHR uncacheable cycles
system.cpu7.dcache.overall_mshr_uncacheable_latency::total     21782998                       # number of overall MSHR uncacheable cycles
system.cpu7.dcache.ReadReq_mshr_miss_rate::switch_cpus7.data     0.010705                       # mshr miss rate for ReadReq accesses
system.cpu7.dcache.ReadReq_mshr_miss_rate::total     0.010705                       # mshr miss rate for ReadReq accesses
system.cpu7.dcache.WriteReq_mshr_miss_rate::switch_cpus7.data     0.014300                       # mshr miss rate for WriteReq accesses
system.cpu7.dcache.WriteReq_mshr_miss_rate::total     0.014300                       # mshr miss rate for WriteReq accesses
system.cpu7.dcache.SoftPFReq_mshr_miss_rate::switch_cpus7.data     0.165817                       # mshr miss rate for SoftPFReq accesses
system.cpu7.dcache.SoftPFReq_mshr_miss_rate::total     0.165817                       # mshr miss rate for SoftPFReq accesses
system.cpu7.dcache.LoadLockedReq_mshr_miss_rate::switch_cpus7.data     0.047938                       # mshr miss rate for LoadLockedReq accesses
system.cpu7.dcache.LoadLockedReq_mshr_miss_rate::total     0.047938                       # mshr miss rate for LoadLockedReq accesses
system.cpu7.dcache.StoreCondReq_mshr_miss_rate::switch_cpus7.data     0.121872                       # mshr miss rate for StoreCondReq accesses
system.cpu7.dcache.StoreCondReq_mshr_miss_rate::total     0.121872                       # mshr miss rate for StoreCondReq accesses
system.cpu7.dcache.demand_mshr_miss_rate::switch_cpus7.data     0.011444                       # mshr miss rate for demand accesses
system.cpu7.dcache.demand_mshr_miss_rate::total     0.011444                       # mshr miss rate for demand accesses
system.cpu7.dcache.overall_mshr_miss_rate::switch_cpus7.data     0.025649                       # mshr miss rate for overall accesses
system.cpu7.dcache.overall_mshr_miss_rate::total     0.025649                       # mshr miss rate for overall accesses
system.cpu7.dcache.ReadReq_avg_mshr_miss_latency::switch_cpus7.data 25347.783383                       # average ReadReq mshr miss latency
system.cpu7.dcache.ReadReq_avg_mshr_miss_latency::total 25347.783383                       # average ReadReq mshr miss latency
system.cpu7.dcache.WriteReq_avg_mshr_miss_latency::switch_cpus7.data 10091.880233                       # average WriteReq mshr miss latency
system.cpu7.dcache.WriteReq_avg_mshr_miss_latency::total 10091.880233                       # average WriteReq mshr miss latency
system.cpu7.dcache.SoftPFReq_avg_mshr_miss_latency::switch_cpus7.data 39359.490973                       # average SoftPFReq mshr miss latency
system.cpu7.dcache.SoftPFReq_avg_mshr_miss_latency::total 39359.490973                       # average SoftPFReq mshr miss latency
system.cpu7.dcache.LoadLockedReq_avg_mshr_miss_latency::switch_cpus7.data 10077.204535                       # average LoadLockedReq mshr miss latency
system.cpu7.dcache.LoadLockedReq_avg_mshr_miss_latency::total 10077.204535                       # average LoadLockedReq mshr miss latency
system.cpu7.dcache.StoreCondReq_avg_mshr_miss_latency::switch_cpus7.data  4201.559125                       # average StoreCondReq mshr miss latency
system.cpu7.dcache.StoreCondReq_avg_mshr_miss_latency::total  4201.559125                       # average StoreCondReq mshr miss latency
system.cpu7.dcache.StoreCondFailReq_avg_mshr_miss_latency::switch_cpus7.data          inf                       # average StoreCondFailReq mshr miss latency
system.cpu7.dcache.StoreCondFailReq_avg_mshr_miss_latency::total          inf                       # average StoreCondFailReq mshr miss latency
system.cpu7.dcache.demand_avg_mshr_miss_latency::switch_cpus7.data 21431.237189                       # average overall mshr miss latency
system.cpu7.dcache.demand_avg_mshr_miss_latency::total 21431.237189                       # average overall mshr miss latency
system.cpu7.dcache.overall_avg_mshr_miss_latency::switch_cpus7.data 32096.379528                       # average overall mshr miss latency
system.cpu7.dcache.overall_avg_mshr_miss_latency::total 32096.379528                       # average overall mshr miss latency
system.cpu7.dcache.ReadReq_avg_mshr_uncacheable_latency::switch_cpus7.data          inf                       # average ReadReq mshr uncacheable latency
system.cpu7.dcache.ReadReq_avg_mshr_uncacheable_latency::total          inf                       # average ReadReq mshr uncacheable latency
system.cpu7.dcache.WriteReq_avg_mshr_uncacheable_latency::switch_cpus7.data          inf                       # average WriteReq mshr uncacheable latency
system.cpu7.dcache.WriteReq_avg_mshr_uncacheable_latency::total          inf                       # average WriteReq mshr uncacheable latency
system.cpu7.dcache.overall_avg_mshr_uncacheable_latency::switch_cpus7.data          inf                       # average overall mshr uncacheable latency
system.cpu7.dcache.overall_avg_mshr_uncacheable_latency::total          inf                       # average overall mshr uncacheable latency
system.cpu7.dcache.no_allocate_misses               0                       # Number of misses that were no-allocate
system.iocache.tags.replacements                  114                       # number of replacements
system.iocache.tags.tagsinuse               14.869544                       # Cycle average of tags in use
system.iocache.tags.total_refs                      0                       # Total number of references to valid blocks.
system.iocache.tags.sampled_refs                  130                       # Sample count of references to valid blocks.
system.iocache.tags.avg_refs                        0                       # Average number of references to valid blocks.
system.iocache.tags.warmup_cycle         3212731564000                       # Cycle when the warmup percentage was hit.
system.iocache.tags.occ_blocks::realview.ide    14.869544                       # Average occupied blocks per requestor
system.iocache.tags.occ_percent::realview.ide     0.929346                       # Average percentage of cache occupancy
system.iocache.tags.occ_percent::total       0.929346                       # Average percentage of cache occupancy
system.iocache.tags.occ_task_id_blocks::1023           16                       # Occupied blocks per task id
system.iocache.tags.age_task_id_blocks_1023::4           16                       # Occupied blocks per task id
system.iocache.tags.occ_task_id_percent::1023            1                       # Percentage of cache occupancy per task id
system.iocache.tags.tag_accesses                 1178                       # Number of tag accesses
system.iocache.tags.data_accesses                1178                       # Number of data accesses
system.iocache.WriteInvalidateReq_hits::realview.ide          128                       # number of WriteInvalidateReq hits
system.iocache.WriteInvalidateReq_hits::total          128                       # number of WriteInvalidateReq hits
system.iocache.ReadReq_misses::realview.ide            2                       # number of ReadReq misses
system.iocache.ReadReq_misses::total                2                       # number of ReadReq misses
system.iocache.WriteInvalidateReq_misses::realview.ide            1                       # number of WriteInvalidateReq misses
system.iocache.WriteInvalidateReq_misses::total            1                       # number of WriteInvalidateReq misses
system.iocache.demand_misses::realview.ide            2                       # number of demand (read+write) misses
system.iocache.demand_misses::total                 2                       # number of demand (read+write) misses
system.iocache.overall_misses::realview.ide            2                       # number of overall misses
system.iocache.overall_misses::total                2                       # number of overall misses
system.iocache.ReadReq_miss_latency::realview.ide       218999                       # number of ReadReq miss cycles
system.iocache.ReadReq_miss_latency::total       218999                       # number of ReadReq miss cycles
system.iocache.demand_miss_latency::realview.ide       218999                       # number of demand (read+write) miss cycles
system.iocache.demand_miss_latency::total       218999                       # number of demand (read+write) miss cycles
system.iocache.overall_miss_latency::realview.ide       218999                       # number of overall miss cycles
system.iocache.overall_miss_latency::total       218999                       # number of overall miss cycles
system.iocache.ReadReq_accesses::realview.ide            2                       # number of ReadReq accesses(hits+misses)
system.iocache.ReadReq_accesses::total              2                       # number of ReadReq accesses(hits+misses)
system.iocache.WriteInvalidateReq_accesses::realview.ide          129                       # number of WriteInvalidateReq accesses(hits+misses)
system.iocache.WriteInvalidateReq_accesses::total          129                       # number of WriteInvalidateReq accesses(hits+misses)
system.iocache.demand_accesses::realview.ide            2                       # number of demand (read+write) accesses
system.iocache.demand_accesses::total               2                       # number of demand (read+write) accesses
system.iocache.overall_accesses::realview.ide            2                       # number of overall (read+write) accesses
system.iocache.overall_accesses::total              2                       # number of overall (read+write) accesses
system.iocache.ReadReq_miss_rate::realview.ide            1                       # miss rate for ReadReq accesses
system.iocache.ReadReq_miss_rate::total             1                       # miss rate for ReadReq accesses
system.iocache.WriteInvalidateReq_miss_rate::realview.ide     0.007752                       # miss rate for WriteInvalidateReq accesses
system.iocache.WriteInvalidateReq_miss_rate::total     0.007752                       # miss rate for WriteInvalidateReq accesses
system.iocache.demand_miss_rate::realview.ide            1                       # miss rate for demand accesses
system.iocache.demand_miss_rate::total              1                       # miss rate for demand accesses
system.iocache.overall_miss_rate::realview.ide            1                       # miss rate for overall accesses
system.iocache.overall_miss_rate::total             1                       # miss rate for overall accesses
system.iocache.ReadReq_avg_miss_latency::realview.ide 109499.500000                       # average ReadReq miss latency
system.iocache.ReadReq_avg_miss_latency::total 109499.500000                       # average ReadReq miss latency
system.iocache.demand_avg_miss_latency::realview.ide 109499.500000                       # average overall miss latency
system.iocache.demand_avg_miss_latency::total 109499.500000                       # average overall miss latency
system.iocache.overall_avg_miss_latency::realview.ide 109499.500000                       # average overall miss latency
system.iocache.overall_avg_miss_latency::total 109499.500000                       # average overall miss latency
system.iocache.blocked_cycles::no_mshrs             0                       # number of cycles access was blocked
system.iocache.blocked_cycles::no_targets            0                       # number of cycles access was blocked
system.iocache.blocked::no_mshrs                    0                       # number of cycles access was blocked
system.iocache.blocked::no_targets                  0                       # number of cycles access was blocked
system.iocache.avg_blocked_cycles::no_mshrs          nan                       # average number of cycles each access was blocked
system.iocache.avg_blocked_cycles::no_targets          nan                       # average number of cycles each access was blocked
system.iocache.fast_writes                        128                       # number of fast writes performed
system.iocache.cache_copies                         0                       # number of cache copies performed
system.iocache.ReadReq_mshr_misses::realview.ide            2                       # number of ReadReq MSHR misses
system.iocache.ReadReq_mshr_misses::total            2                       # number of ReadReq MSHR misses
system.iocache.WriteInvalidateReq_mshr_misses::realview.ide          128                       # number of WriteInvalidateReq MSHR misses
system.iocache.WriteInvalidateReq_mshr_misses::total          128                       # number of WriteInvalidateReq MSHR misses
system.iocache.demand_mshr_misses::realview.ide            2                       # number of demand (read+write) MSHR misses
system.iocache.demand_mshr_misses::total            2                       # number of demand (read+write) MSHR misses
system.iocache.overall_mshr_misses::realview.ide            2                       # number of overall MSHR misses
system.iocache.overall_mshr_misses::total            2                       # number of overall MSHR misses
system.iocache.ReadReq_mshr_miss_latency::realview.ide       114999                       # number of ReadReq MSHR miss cycles
system.iocache.ReadReq_mshr_miss_latency::total       114999                       # number of ReadReq MSHR miss cycles
system.iocache.WriteInvalidateReq_mshr_miss_latency::realview.ide     14227992                       # number of WriteInvalidateReq MSHR miss cycles
system.iocache.WriteInvalidateReq_mshr_miss_latency::total     14227992                       # number of WriteInvalidateReq MSHR miss cycles
system.iocache.demand_mshr_miss_latency::realview.ide       114999                       # number of demand (read+write) MSHR miss cycles
system.iocache.demand_mshr_miss_latency::total       114999                       # number of demand (read+write) MSHR miss cycles
system.iocache.overall_mshr_miss_latency::realview.ide       114999                       # number of overall MSHR miss cycles
system.iocache.overall_mshr_miss_latency::total       114999                       # number of overall MSHR miss cycles
system.iocache.ReadReq_mshr_miss_rate::realview.ide            1                       # mshr miss rate for ReadReq accesses
system.iocache.ReadReq_mshr_miss_rate::total            1                       # mshr miss rate for ReadReq accesses
system.iocache.WriteInvalidateReq_mshr_miss_rate::realview.ide     0.992248                       # mshr miss rate for WriteInvalidateReq accesses
system.iocache.WriteInvalidateReq_mshr_miss_rate::total     0.992248                       # mshr miss rate for WriteInvalidateReq accesses
system.iocache.demand_mshr_miss_rate::realview.ide            1                       # mshr miss rate for demand accesses
system.iocache.demand_mshr_miss_rate::total            1                       # mshr miss rate for demand accesses
system.iocache.overall_mshr_miss_rate::realview.ide            1                       # mshr miss rate for overall accesses
system.iocache.overall_mshr_miss_rate::total            1                       # mshr miss rate for overall accesses
system.iocache.ReadReq_avg_mshr_miss_latency::realview.ide 57499.500000                       # average ReadReq mshr miss latency
system.iocache.ReadReq_avg_mshr_miss_latency::total 57499.500000                       # average ReadReq mshr miss latency
system.iocache.WriteInvalidateReq_avg_mshr_miss_latency::realview.ide 111156.187500                       # average WriteInvalidateReq mshr miss latency
system.iocache.WriteInvalidateReq_avg_mshr_miss_latency::total 111156.187500                       # average WriteInvalidateReq mshr miss latency
system.iocache.demand_avg_mshr_miss_latency::realview.ide 57499.500000                       # average overall mshr miss latency
system.iocache.demand_avg_mshr_miss_latency::total 57499.500000                       # average overall mshr miss latency
system.iocache.overall_avg_mshr_miss_latency::realview.ide 57499.500000                       # average overall mshr miss latency
system.iocache.overall_avg_mshr_miss_latency::total 57499.500000                       # average overall mshr miss latency
system.iocache.no_allocate_misses                   0                       # Number of misses that were no-allocate
system.switch_cpus0.kern.inst.arm                   0                       # number of arm instructions executed
system.switch_cpus0.kern.inst.quiesce               0                       # number of quiesce instructions executed
system.switch_cpus1.kern.inst.arm                   0                       # number of arm instructions executed
system.switch_cpus1.kern.inst.quiesce               0                       # number of quiesce instructions executed
system.switch_cpus2.kern.inst.arm                   0                       # number of arm instructions executed
system.switch_cpus2.kern.inst.quiesce               0                       # number of quiesce instructions executed
system.switch_cpus3.kern.inst.arm                   0                       # number of arm instructions executed
system.switch_cpus3.kern.inst.quiesce               0                       # number of quiesce instructions executed
system.switch_cpus4.kern.inst.arm                   0                       # number of arm instructions executed
system.switch_cpus4.kern.inst.quiesce               0                       # number of quiesce instructions executed
system.switch_cpus5.kern.inst.arm                   0                       # number of arm instructions executed
system.switch_cpus5.kern.inst.quiesce               0                       # number of quiesce instructions executed
system.switch_cpus6.kern.inst.arm                   0                       # number of arm instructions executed
system.switch_cpus6.kern.inst.quiesce               0                       # number of quiesce instructions executed
system.switch_cpus7.kern.inst.arm                   0                       # number of arm instructions executed
system.switch_cpus7.kern.inst.quiesce               0                       # number of quiesce instructions executed

---------- End Simulation Statistics   ----------
