
---------- Begin Simulation Statistics ----------
sim_seconds                                  0.372304                       # Number of seconds simulated
sim_ticks                                372303855500                       # Number of ticks simulated
final_tick                               3258206101500                       # Number of ticks from beginning of simulation (restored from checkpoints and never reset)
sim_freq                                 1000000000000                       # Frequency of simulated ticks
host_inst_rate                                 245000                       # Simulator instruction rate (inst/s)
host_op_rate                                   273400                       # Simulator op (including micro ops) rate (op/s)
host_tick_rate                               24055495                       # Simulator tick rate (ticks/s)
host_mem_usage                                1004620                       # Number of bytes of host memory used
host_seconds                                 15476.87                       # Real time elapsed on the host
sim_insts                                  3791839953                       # Number of instructions simulated
sim_ops                                    4231379319                       # Number of ops (including micro ops) simulated
system.voltage_domain.voltage                       1                       # Voltage in Volts
system.clk_domain.clock                          1000                       # Clock period in ticks
system.realview.vram.bytes_read::realview.clcd     17817600                       # Number of bytes read from this memory
system.realview.vram.bytes_read::total       17817600                       # Number of bytes read from this memory
system.realview.vram.bytes_written::switch_cpus0.data          512                       # Number of bytes written to this memory
system.realview.vram.bytes_written::total          512                       # Number of bytes written to this memory
system.realview.vram.num_reads::realview.clcd      2227200                       # Number of read requests responded to by this memory
system.realview.vram.num_reads::total         2227200                       # Number of read requests responded to by this memory
system.realview.vram.num_writes::switch_cpus0.data          128                       # Number of write requests responded to by this memory
system.realview.vram.num_writes::total            128                       # Number of write requests responded to by this memory
system.realview.vram.bw_read::realview.clcd     47857683                       # Total read bandwidth from this memory (bytes/s)
system.realview.vram.bw_read::total          47857683                       # Total read bandwidth from this memory (bytes/s)
system.realview.vram.bw_write::switch_cpus0.data         1375                       # Write bandwidth from this memory (bytes/s)
system.realview.vram.bw_write::total             1375                       # Write bandwidth from this memory (bytes/s)
system.realview.vram.bw_total::switch_cpus0.data         1375                       # Total bandwidth to/from this memory (bytes/s)
system.realview.vram.bw_total::realview.clcd     47857683                       # Total bandwidth to/from this memory (bytes/s)
system.realview.vram.bw_total::total         47859058                       # Total bandwidth to/from this memory (bytes/s)
system.mem_ctrls.bytes_read::switch_cpus0.dtb.walker         9280                       # Number of bytes read from this memory
system.mem_ctrls.bytes_read::switch_cpus0.itb.walker         4480                       # Number of bytes read from this memory
system.mem_ctrls.bytes_read::switch_cpus0.inst       108416                       # Number of bytes read from this memory
system.mem_ctrls.bytes_read::switch_cpus0.data       626496                       # Number of bytes read from this memory
system.mem_ctrls.bytes_read::switch_cpus1.dtb.walker         4416                       # Number of bytes read from this memory
system.mem_ctrls.bytes_read::switch_cpus1.itb.walker         2688                       # Number of bytes read from this memory
system.mem_ctrls.bytes_read::switch_cpus1.inst        64128                       # Number of bytes read from this memory
system.mem_ctrls.bytes_read::switch_cpus1.data       408576                       # Number of bytes read from this memory
system.mem_ctrls.bytes_read::switch_cpus2.dtb.walker         1408                       # Number of bytes read from this memory
system.mem_ctrls.bytes_read::switch_cpus2.itb.walker         1024                       # Number of bytes read from this memory
system.mem_ctrls.bytes_read::switch_cpus2.inst        22336                       # Number of bytes read from this memory
system.mem_ctrls.bytes_read::switch_cpus2.data       174912                       # Number of bytes read from this memory
system.mem_ctrls.bytes_read::switch_cpus3.dtb.walker         5120                       # Number of bytes read from this memory
system.mem_ctrls.bytes_read::switch_cpus3.itb.walker         1152                       # Number of bytes read from this memory
system.mem_ctrls.bytes_read::switch_cpus3.inst       117376                       # Number of bytes read from this memory
system.mem_ctrls.bytes_read::switch_cpus3.data       473600                       # Number of bytes read from this memory
system.mem_ctrls.bytes_read::l2.prefetcher      5188800                       # Number of bytes read from this memory
system.mem_ctrls.bytes_read::cpu0.inst            256                       # Number of bytes read from this memory
system.mem_ctrls.bytes_read::cpu0.data            128                       # Number of bytes read from this memory
system.mem_ctrls.bytes_read::cpu3.inst            256                       # Number of bytes read from this memory
system.mem_ctrls.bytes_read::cpu3.data            128                       # Number of bytes read from this memory
system.mem_ctrls.bytes_read::total            7214976                       # Number of bytes read from this memory
system.mem_ctrls.bytes_inst_read::switch_cpus0.inst       108416                       # Number of instructions bytes read from this memory
system.mem_ctrls.bytes_inst_read::switch_cpus1.inst        64128                       # Number of instructions bytes read from this memory
system.mem_ctrls.bytes_inst_read::switch_cpus2.inst        22336                       # Number of instructions bytes read from this memory
system.mem_ctrls.bytes_inst_read::switch_cpus3.inst       117376                       # Number of instructions bytes read from this memory
system.mem_ctrls.bytes_inst_read::cpu0.inst          256                       # Number of instructions bytes read from this memory
system.mem_ctrls.bytes_inst_read::cpu3.inst          256                       # Number of instructions bytes read from this memory
system.mem_ctrls.bytes_inst_read::total        312768                       # Number of instructions bytes read from this memory
system.mem_ctrls.bytes_written::writebacks      2091776                       # Number of bytes written to this memory
system.mem_ctrls.bytes_written::realview.ide         5120                       # Number of bytes written to this memory
system.mem_ctrls.bytes_written::total         2096896                       # Number of bytes written to this memory
system.mem_ctrls.num_reads::switch_cpus0.dtb.walker          145                       # Number of read requests responded to by this memory
system.mem_ctrls.num_reads::switch_cpus0.itb.walker           70                       # Number of read requests responded to by this memory
system.mem_ctrls.num_reads::switch_cpus0.inst         1694                       # Number of read requests responded to by this memory
system.mem_ctrls.num_reads::switch_cpus0.data         9789                       # Number of read requests responded to by this memory
system.mem_ctrls.num_reads::switch_cpus1.dtb.walker           69                       # Number of read requests responded to by this memory
system.mem_ctrls.num_reads::switch_cpus1.itb.walker           42                       # Number of read requests responded to by this memory
system.mem_ctrls.num_reads::switch_cpus1.inst         1002                       # Number of read requests responded to by this memory
system.mem_ctrls.num_reads::switch_cpus1.data         6384                       # Number of read requests responded to by this memory
system.mem_ctrls.num_reads::switch_cpus2.dtb.walker           22                       # Number of read requests responded to by this memory
system.mem_ctrls.num_reads::switch_cpus2.itb.walker           16                       # Number of read requests responded to by this memory
system.mem_ctrls.num_reads::switch_cpus2.inst          349                       # Number of read requests responded to by this memory
system.mem_ctrls.num_reads::switch_cpus2.data         2733                       # Number of read requests responded to by this memory
system.mem_ctrls.num_reads::switch_cpus3.dtb.walker           80                       # Number of read requests responded to by this memory
system.mem_ctrls.num_reads::switch_cpus3.itb.walker           18                       # Number of read requests responded to by this memory
system.mem_ctrls.num_reads::switch_cpus3.inst         1834                       # Number of read requests responded to by this memory
system.mem_ctrls.num_reads::switch_cpus3.data         7400                       # Number of read requests responded to by this memory
system.mem_ctrls.num_reads::l2.prefetcher        81075                       # Number of read requests responded to by this memory
system.mem_ctrls.num_reads::cpu0.inst               4                       # Number of read requests responded to by this memory
system.mem_ctrls.num_reads::cpu0.data               2                       # Number of read requests responded to by this memory
system.mem_ctrls.num_reads::cpu3.inst               4                       # Number of read requests responded to by this memory
system.mem_ctrls.num_reads::cpu3.data               2                       # Number of read requests responded to by this memory
system.mem_ctrls.num_reads::total              112734                       # Number of read requests responded to by this memory
system.mem_ctrls.num_writes::writebacks         32684                       # Number of write requests responded to by this memory
system.mem_ctrls.num_writes::realview.ide           80                       # Number of write requests responded to by this memory
system.mem_ctrls.num_writes::total              32764                       # Number of write requests responded to by this memory
system.mem_ctrls.bw_read::switch_cpus0.dtb.walker        24926                       # Total read bandwidth from this memory (bytes/s)
system.mem_ctrls.bw_read::switch_cpus0.itb.walker        12033                       # Total read bandwidth from this memory (bytes/s)
system.mem_ctrls.bw_read::switch_cpus0.inst       291203                       # Total read bandwidth from this memory (bytes/s)
system.mem_ctrls.bw_read::switch_cpus0.data      1682755                       # Total read bandwidth from this memory (bytes/s)
system.mem_ctrls.bw_read::switch_cpus1.dtb.walker        11861                       # Total read bandwidth from this memory (bytes/s)
system.mem_ctrls.bw_read::switch_cpus1.itb.walker         7220                       # Total read bandwidth from this memory (bytes/s)
system.mem_ctrls.bw_read::switch_cpus1.inst       172246                       # Total read bandwidth from this memory (bytes/s)
system.mem_ctrls.bw_read::switch_cpus1.data      1097426                       # Total read bandwidth from this memory (bytes/s)
system.mem_ctrls.bw_read::switch_cpus2.dtb.walker         3782                       # Total read bandwidth from this memory (bytes/s)
system.mem_ctrls.bw_read::switch_cpus2.itb.walker         2750                       # Total read bandwidth from this memory (bytes/s)
system.mem_ctrls.bw_read::switch_cpus2.inst        59994                       # Total read bandwidth from this memory (bytes/s)
system.mem_ctrls.bw_read::switch_cpus2.data       469810                       # Total read bandwidth from this memory (bytes/s)
system.mem_ctrls.bw_read::switch_cpus3.dtb.walker        13752                       # Total read bandwidth from this memory (bytes/s)
system.mem_ctrls.bw_read::switch_cpus3.itb.walker         3094                       # Total read bandwidth from this memory (bytes/s)
system.mem_ctrls.bw_read::switch_cpus3.inst       315269                       # Total read bandwidth from this memory (bytes/s)
system.mem_ctrls.bw_read::switch_cpus3.data      1272079                       # Total read bandwidth from this memory (bytes/s)
system.mem_ctrls.bw_read::l2.prefetcher      13937003                       # Total read bandwidth from this memory (bytes/s)
system.mem_ctrls.bw_read::cpu0.inst               688                       # Total read bandwidth from this memory (bytes/s)
system.mem_ctrls.bw_read::cpu0.data               344                       # Total read bandwidth from this memory (bytes/s)
system.mem_ctrls.bw_read::cpu3.inst               688                       # Total read bandwidth from this memory (bytes/s)
system.mem_ctrls.bw_read::cpu3.data               344                       # Total read bandwidth from this memory (bytes/s)
system.mem_ctrls.bw_read::total              19379267                       # Total read bandwidth from this memory (bytes/s)
system.mem_ctrls.bw_inst_read::switch_cpus0.inst       291203                       # Instruction read bandwidth from this memory (bytes/s)
system.mem_ctrls.bw_inst_read::switch_cpus1.inst       172246                       # Instruction read bandwidth from this memory (bytes/s)
system.mem_ctrls.bw_inst_read::switch_cpus2.inst        59994                       # Instruction read bandwidth from this memory (bytes/s)
system.mem_ctrls.bw_inst_read::switch_cpus3.inst       315269                       # Instruction read bandwidth from this memory (bytes/s)
system.mem_ctrls.bw_inst_read::cpu0.inst          688                       # Instruction read bandwidth from this memory (bytes/s)
system.mem_ctrls.bw_inst_read::cpu3.inst          688                       # Instruction read bandwidth from this memory (bytes/s)
system.mem_ctrls.bw_inst_read::total           840088                       # Instruction read bandwidth from this memory (bytes/s)
system.mem_ctrls.bw_write::writebacks         5618465                       # Write bandwidth from this memory (bytes/s)
system.mem_ctrls.bw_write::realview.ide         13752                       # Write bandwidth from this memory (bytes/s)
system.mem_ctrls.bw_write::total              5632217                       # Write bandwidth from this memory (bytes/s)
system.mem_ctrls.bw_total::writebacks         5618465                       # Total bandwidth to/from this memory (bytes/s)
system.mem_ctrls.bw_total::switch_cpus0.dtb.walker        24926                       # Total bandwidth to/from this memory (bytes/s)
system.mem_ctrls.bw_total::switch_cpus0.itb.walker        12033                       # Total bandwidth to/from this memory (bytes/s)
system.mem_ctrls.bw_total::switch_cpus0.inst       291203                       # Total bandwidth to/from this memory (bytes/s)
system.mem_ctrls.bw_total::switch_cpus0.data      1682755                       # Total bandwidth to/from this memory (bytes/s)
system.mem_ctrls.bw_total::switch_cpus1.dtb.walker        11861                       # Total bandwidth to/from this memory (bytes/s)
system.mem_ctrls.bw_total::switch_cpus1.itb.walker         7220                       # Total bandwidth to/from this memory (bytes/s)
system.mem_ctrls.bw_total::switch_cpus1.inst       172246                       # Total bandwidth to/from this memory (bytes/s)
system.mem_ctrls.bw_total::switch_cpus1.data      1097426                       # Total bandwidth to/from this memory (bytes/s)
system.mem_ctrls.bw_total::switch_cpus2.dtb.walker         3782                       # Total bandwidth to/from this memory (bytes/s)
system.mem_ctrls.bw_total::switch_cpus2.itb.walker         2750                       # Total bandwidth to/from this memory (bytes/s)
system.mem_ctrls.bw_total::switch_cpus2.inst        59994                       # Total bandwidth to/from this memory (bytes/s)
system.mem_ctrls.bw_total::switch_cpus2.data       469810                       # Total bandwidth to/from this memory (bytes/s)
system.mem_ctrls.bw_total::switch_cpus3.dtb.walker        13752                       # Total bandwidth to/from this memory (bytes/s)
system.mem_ctrls.bw_total::switch_cpus3.itb.walker         3094                       # Total bandwidth to/from this memory (bytes/s)
system.mem_ctrls.bw_total::switch_cpus3.inst       315269                       # Total bandwidth to/from this memory (bytes/s)
system.mem_ctrls.bw_total::switch_cpus3.data      1272079                       # Total bandwidth to/from this memory (bytes/s)
system.mem_ctrls.bw_total::realview.ide         13752                       # Total bandwidth to/from this memory (bytes/s)
system.mem_ctrls.bw_total::l2.prefetcher     13937003                       # Total bandwidth to/from this memory (bytes/s)
system.mem_ctrls.bw_total::cpu0.inst              688                       # Total bandwidth to/from this memory (bytes/s)
system.mem_ctrls.bw_total::cpu0.data              344                       # Total bandwidth to/from this memory (bytes/s)
system.mem_ctrls.bw_total::cpu3.inst              688                       # Total bandwidth to/from this memory (bytes/s)
system.mem_ctrls.bw_total::cpu3.data              344                       # Total bandwidth to/from this memory (bytes/s)
system.mem_ctrls.bw_total::total             25011484                       # Total bandwidth to/from this memory (bytes/s)
system.mem_ctrls.readReqs                      112722                       # Number of read requests accepted
system.mem_ctrls.writeReqs                      32764                       # Number of write requests accepted
system.mem_ctrls.readBursts                    112722                       # Number of DRAM read bursts, including those serviced by the write queue
system.mem_ctrls.writeBursts                    32764                       # Number of DRAM write bursts, including those merged in the write queue
system.mem_ctrls.bytesReadDRAM                7187008                       # Total number of bytes read from DRAM
system.mem_ctrls.bytesReadWrQ                   27200                       # Total number of bytes read from write queue
system.mem_ctrls.bytesWritten                 2095680                       # Total number of bytes written to DRAM
system.mem_ctrls.bytesReadSys                 7214208                       # Total read bytes from the system interface side
system.mem_ctrls.bytesWrittenSys              2096896                       # Total written bytes from the system interface side
system.mem_ctrls.servicedByWrQ                    425                       # Number of DRAM read bursts serviced by the write queue
system.mem_ctrls.mergedWrBursts                     0                       # Number of DRAM write bursts merged with an existing one
system.mem_ctrls.neitherReadNorWriteReqs         8544                       # Number of requests that are neither read nor write
system.mem_ctrls.perBankRdBursts::0              4178                       # Per bank write bursts
system.mem_ctrls.perBankRdBursts::1              4038                       # Per bank write bursts
system.mem_ctrls.perBankRdBursts::2              4759                       # Per bank write bursts
system.mem_ctrls.perBankRdBursts::3              4637                       # Per bank write bursts
system.mem_ctrls.perBankRdBursts::4              6180                       # Per bank write bursts
system.mem_ctrls.perBankRdBursts::5              5593                       # Per bank write bursts
system.mem_ctrls.perBankRdBursts::6             10724                       # Per bank write bursts
system.mem_ctrls.perBankRdBursts::7              6891                       # Per bank write bursts
system.mem_ctrls.perBankRdBursts::8              8820                       # Per bank write bursts
system.mem_ctrls.perBankRdBursts::9              9461                       # Per bank write bursts
system.mem_ctrls.perBankRdBursts::10             9233                       # Per bank write bursts
system.mem_ctrls.perBankRdBursts::11             8562                       # Per bank write bursts
system.mem_ctrls.perBankRdBursts::12             6337                       # Per bank write bursts
system.mem_ctrls.perBankRdBursts::13             5974                       # Per bank write bursts
system.mem_ctrls.perBankRdBursts::14             5911                       # Per bank write bursts
system.mem_ctrls.perBankRdBursts::15            10999                       # Per bank write bursts
system.mem_ctrls.perBankWrBursts::0               916                       # Per bank write bursts
system.mem_ctrls.perBankWrBursts::1              1041                       # Per bank write bursts
system.mem_ctrls.perBankWrBursts::2              1427                       # Per bank write bursts
system.mem_ctrls.perBankWrBursts::3               980                       # Per bank write bursts
system.mem_ctrls.perBankWrBursts::4              1989                       # Per bank write bursts
system.mem_ctrls.perBankWrBursts::5              1603                       # Per bank write bursts
system.mem_ctrls.perBankWrBursts::6              3169                       # Per bank write bursts
system.mem_ctrls.perBankWrBursts::7              1974                       # Per bank write bursts
system.mem_ctrls.perBankWrBursts::8              2672                       # Per bank write bursts
system.mem_ctrls.perBankWrBursts::9              2451                       # Per bank write bursts
system.mem_ctrls.perBankWrBursts::10             2598                       # Per bank write bursts
system.mem_ctrls.perBankWrBursts::11             2259                       # Per bank write bursts
system.mem_ctrls.perBankWrBursts::12             1817                       # Per bank write bursts
system.mem_ctrls.perBankWrBursts::13             2386                       # Per bank write bursts
system.mem_ctrls.perBankWrBursts::14             1824                       # Per bank write bursts
system.mem_ctrls.perBankWrBursts::15             3639                       # Per bank write bursts
system.mem_ctrls.numRdRetry                         0                       # Number of times read queue was full causing retry
system.mem_ctrls.numWrRetry                         0                       # Number of times write queue was full causing retry
system.mem_ctrls.totGap                  370084479500                       # Total gap between requests
system.mem_ctrls.readPktSize::0                     0                       # Read request sizes (log2)
system.mem_ctrls.readPktSize::1                     0                       # Read request sizes (log2)
system.mem_ctrls.readPktSize::2                     0                       # Read request sizes (log2)
system.mem_ctrls.readPktSize::3                     0                       # Read request sizes (log2)
system.mem_ctrls.readPktSize::4                     0                       # Read request sizes (log2)
system.mem_ctrls.readPktSize::5                     0                       # Read request sizes (log2)
system.mem_ctrls.readPktSize::6                112722                       # Read request sizes (log2)
system.mem_ctrls.writePktSize::0                    0                       # Write request sizes (log2)
system.mem_ctrls.writePktSize::1                    0                       # Write request sizes (log2)
system.mem_ctrls.writePktSize::2                    0                       # Write request sizes (log2)
system.mem_ctrls.writePktSize::3                    0                       # Write request sizes (log2)
system.mem_ctrls.writePktSize::4                    0                       # Write request sizes (log2)
system.mem_ctrls.writePktSize::5                    0                       # Write request sizes (log2)
system.mem_ctrls.writePktSize::6                32764                       # Write request sizes (log2)
system.mem_ctrls.rdQLenPdf::0                   44498                       # What read queue length does an incoming req see
system.mem_ctrls.rdQLenPdf::1                   30940                       # What read queue length does an incoming req see
system.mem_ctrls.rdQLenPdf::2                   11329                       # What read queue length does an incoming req see
system.mem_ctrls.rdQLenPdf::3                    6785                       # What read queue length does an incoming req see
system.mem_ctrls.rdQLenPdf::4                    4578                       # What read queue length does an incoming req see
system.mem_ctrls.rdQLenPdf::5                    3649                       # What read queue length does an incoming req see
system.mem_ctrls.rdQLenPdf::6                    2909                       # What read queue length does an incoming req see
system.mem_ctrls.rdQLenPdf::7                    2485                       # What read queue length does an incoming req see
system.mem_ctrls.rdQLenPdf::8                    2234                       # What read queue length does an incoming req see
system.mem_ctrls.rdQLenPdf::9                     896                       # What read queue length does an incoming req see
system.mem_ctrls.rdQLenPdf::10                    681                       # What read queue length does an incoming req see
system.mem_ctrls.rdQLenPdf::11                    513                       # What read queue length does an incoming req see
system.mem_ctrls.rdQLenPdf::12                    309                       # What read queue length does an incoming req see
system.mem_ctrls.rdQLenPdf::13                    220                       # What read queue length does an incoming req see
system.mem_ctrls.rdQLenPdf::14                    168                       # What read queue length does an incoming req see
system.mem_ctrls.rdQLenPdf::15                    103                       # What read queue length does an incoming req see
system.mem_ctrls.rdQLenPdf::16                      0                       # What read queue length does an incoming req see
system.mem_ctrls.rdQLenPdf::17                      0                       # What read queue length does an incoming req see
system.mem_ctrls.rdQLenPdf::18                      0                       # What read queue length does an incoming req see
system.mem_ctrls.rdQLenPdf::19                      0                       # What read queue length does an incoming req see
system.mem_ctrls.rdQLenPdf::20                      0                       # What read queue length does an incoming req see
system.mem_ctrls.rdQLenPdf::21                      0                       # What read queue length does an incoming req see
system.mem_ctrls.rdQLenPdf::22                      0                       # What read queue length does an incoming req see
system.mem_ctrls.rdQLenPdf::23                      0                       # What read queue length does an incoming req see
system.mem_ctrls.rdQLenPdf::24                      0                       # What read queue length does an incoming req see
system.mem_ctrls.rdQLenPdf::25                      0                       # What read queue length does an incoming req see
system.mem_ctrls.rdQLenPdf::26                      0                       # What read queue length does an incoming req see
system.mem_ctrls.rdQLenPdf::27                      0                       # What read queue length does an incoming req see
system.mem_ctrls.rdQLenPdf::28                      0                       # What read queue length does an incoming req see
system.mem_ctrls.rdQLenPdf::29                      0                       # What read queue length does an incoming req see
system.mem_ctrls.rdQLenPdf::30                      0                       # What read queue length does an incoming req see
system.mem_ctrls.rdQLenPdf::31                      0                       # What read queue length does an incoming req see
system.mem_ctrls.wrQLenPdf::0                       1                       # What write queue length does an incoming req see
system.mem_ctrls.wrQLenPdf::1                       1                       # What write queue length does an incoming req see
system.mem_ctrls.wrQLenPdf::2                       1                       # What write queue length does an incoming req see
system.mem_ctrls.wrQLenPdf::3                       1                       # What write queue length does an incoming req see
system.mem_ctrls.wrQLenPdf::4                       1                       # What write queue length does an incoming req see
system.mem_ctrls.wrQLenPdf::5                       1                       # What write queue length does an incoming req see
system.mem_ctrls.wrQLenPdf::6                       1                       # What write queue length does an incoming req see
system.mem_ctrls.wrQLenPdf::7                       1                       # What write queue length does an incoming req see
system.mem_ctrls.wrQLenPdf::8                       1                       # What write queue length does an incoming req see
system.mem_ctrls.wrQLenPdf::9                       1                       # What write queue length does an incoming req see
system.mem_ctrls.wrQLenPdf::10                      1                       # What write queue length does an incoming req see
system.mem_ctrls.wrQLenPdf::11                      1                       # What write queue length does an incoming req see
system.mem_ctrls.wrQLenPdf::12                      1                       # What write queue length does an incoming req see
system.mem_ctrls.wrQLenPdf::13                      1                       # What write queue length does an incoming req see
system.mem_ctrls.wrQLenPdf::14                      1                       # What write queue length does an incoming req see
system.mem_ctrls.wrQLenPdf::15                    841                       # What write queue length does an incoming req see
system.mem_ctrls.wrQLenPdf::16                    881                       # What write queue length does an incoming req see
system.mem_ctrls.wrQLenPdf::17                   1330                       # What write queue length does an incoming req see
system.mem_ctrls.wrQLenPdf::18                   1606                       # What write queue length does an incoming req see
system.mem_ctrls.wrQLenPdf::19                   1767                       # What write queue length does an incoming req see
system.mem_ctrls.wrQLenPdf::20                   1846                       # What write queue length does an incoming req see
system.mem_ctrls.wrQLenPdf::21                   1913                       # What write queue length does an incoming req see
system.mem_ctrls.wrQLenPdf::22                   1966                       # What write queue length does an incoming req see
system.mem_ctrls.wrQLenPdf::23                   2006                       # What write queue length does an incoming req see
system.mem_ctrls.wrQLenPdf::24                   2028                       # What write queue length does an incoming req see
system.mem_ctrls.wrQLenPdf::25                   2069                       # What write queue length does an incoming req see
system.mem_ctrls.wrQLenPdf::26                   2067                       # What write queue length does an incoming req see
system.mem_ctrls.wrQLenPdf::27                   2128                       # What write queue length does an incoming req see
system.mem_ctrls.wrQLenPdf::28                   2194                       # What write queue length does an incoming req see
system.mem_ctrls.wrQLenPdf::29                   2047                       # What write queue length does an incoming req see
system.mem_ctrls.wrQLenPdf::30                   2005                       # What write queue length does an incoming req see
system.mem_ctrls.wrQLenPdf::31                   2005                       # What write queue length does an incoming req see
system.mem_ctrls.wrQLenPdf::32                   1955                       # What write queue length does an incoming req see
system.mem_ctrls.wrQLenPdf::33                     37                       # What write queue length does an incoming req see
system.mem_ctrls.wrQLenPdf::34                     23                       # What write queue length does an incoming req see
system.mem_ctrls.wrQLenPdf::35                      7                       # What write queue length does an incoming req see
system.mem_ctrls.wrQLenPdf::36                      5                       # What write queue length does an incoming req see
system.mem_ctrls.wrQLenPdf::37                      1                       # What write queue length does an incoming req see
system.mem_ctrls.wrQLenPdf::38                      1                       # What write queue length does an incoming req see
system.mem_ctrls.wrQLenPdf::39                      3                       # What write queue length does an incoming req see
system.mem_ctrls.wrQLenPdf::40                      3                       # What write queue length does an incoming req see
system.mem_ctrls.wrQLenPdf::41                      3                       # What write queue length does an incoming req see
system.mem_ctrls.wrQLenPdf::42                      5                       # What write queue length does an incoming req see
system.mem_ctrls.wrQLenPdf::43                      3                       # What write queue length does an incoming req see
system.mem_ctrls.wrQLenPdf::44                      2                       # What write queue length does an incoming req see
system.mem_ctrls.wrQLenPdf::45                      2                       # What write queue length does an incoming req see
system.mem_ctrls.wrQLenPdf::46                      0                       # What write queue length does an incoming req see
system.mem_ctrls.wrQLenPdf::47                      0                       # What write queue length does an incoming req see
system.mem_ctrls.wrQLenPdf::48                      0                       # What write queue length does an incoming req see
system.mem_ctrls.wrQLenPdf::49                      0                       # What write queue length does an incoming req see
system.mem_ctrls.wrQLenPdf::50                      0                       # What write queue length does an incoming req see
system.mem_ctrls.wrQLenPdf::51                      0                       # What write queue length does an incoming req see
system.mem_ctrls.wrQLenPdf::52                      0                       # What write queue length does an incoming req see
system.mem_ctrls.wrQLenPdf::53                      0                       # What write queue length does an incoming req see
system.mem_ctrls.wrQLenPdf::54                      0                       # What write queue length does an incoming req see
system.mem_ctrls.wrQLenPdf::55                      0                       # What write queue length does an incoming req see
system.mem_ctrls.wrQLenPdf::56                      0                       # What write queue length does an incoming req see
system.mem_ctrls.wrQLenPdf::57                      0                       # What write queue length does an incoming req see
system.mem_ctrls.wrQLenPdf::58                      0                       # What write queue length does an incoming req see
system.mem_ctrls.wrQLenPdf::59                      0                       # What write queue length does an incoming req see
system.mem_ctrls.wrQLenPdf::60                      0                       # What write queue length does an incoming req see
system.mem_ctrls.wrQLenPdf::61                      0                       # What write queue length does an incoming req see
system.mem_ctrls.wrQLenPdf::62                      0                       # What write queue length does an incoming req see
system.mem_ctrls.wrQLenPdf::63                      0                       # What write queue length does an incoming req see
system.mem_ctrls.bytesPerActivate::samples        56327                       # Bytes accessed per row activation
system.mem_ctrls.bytesPerActivate::mean    164.799972                       # Bytes accessed per row activation
system.mem_ctrls.bytesPerActivate::gmean   106.796673                       # Bytes accessed per row activation
system.mem_ctrls.bytesPerActivate::stdev   218.824092                       # Bytes accessed per row activation
system.mem_ctrls.bytesPerActivate::0-127        34814     61.81%     61.81% # Bytes accessed per row activation
system.mem_ctrls.bytesPerActivate::128-255        12316     21.87%     83.67% # Bytes accessed per row activation
system.mem_ctrls.bytesPerActivate::256-383         3307      5.87%     89.54% # Bytes accessed per row activation
system.mem_ctrls.bytesPerActivate::384-511         1414      2.51%     92.05% # Bytes accessed per row activation
system.mem_ctrls.bytesPerActivate::512-639         1003      1.78%     93.83% # Bytes accessed per row activation
system.mem_ctrls.bytesPerActivate::640-767          663      1.18%     95.01% # Bytes accessed per row activation
system.mem_ctrls.bytesPerActivate::768-895          427      0.76%     95.77% # Bytes accessed per row activation
system.mem_ctrls.bytesPerActivate::896-1023          315      0.56%     96.33% # Bytes accessed per row activation
system.mem_ctrls.bytesPerActivate::1024-1151         2068      3.67%    100.00% # Bytes accessed per row activation
system.mem_ctrls.bytesPerActivate::total        56327                       # Bytes accessed per row activation
system.mem_ctrls.rdPerTurnAround::samples         1914                       # Reads before turning the bus around for writes
system.mem_ctrls.rdPerTurnAround::mean      58.667189                       # Reads before turning the bus around for writes
system.mem_ctrls.rdPerTurnAround::gmean     41.970775                       # Reads before turning the bus around for writes
system.mem_ctrls.rdPerTurnAround::stdev    484.519352                       # Reads before turning the bus around for writes
system.mem_ctrls.rdPerTurnAround::0-1023         1912     99.90%     99.90% # Reads before turning the bus around for writes
system.mem_ctrls.rdPerTurnAround::1024-2047            1      0.05%     99.95% # Reads before turning the bus around for writes
system.mem_ctrls.rdPerTurnAround::20480-21503            1      0.05%    100.00% # Reads before turning the bus around for writes
system.mem_ctrls.rdPerTurnAround::total          1914                       # Reads before turning the bus around for writes
system.mem_ctrls.wrPerTurnAround::samples         1914                       # Writes before turning the bus around for reads
system.mem_ctrls.wrPerTurnAround::mean      17.108150                       # Writes before turning the bus around for reads
system.mem_ctrls.wrPerTurnAround::gmean     17.056990                       # Writes before turning the bus around for reads
system.mem_ctrls.wrPerTurnAround::stdev      1.365050                       # Writes before turning the bus around for reads
system.mem_ctrls.wrPerTurnAround::16             1019     53.24%     53.24% # Writes before turning the bus around for reads
system.mem_ctrls.wrPerTurnAround::17               31      1.62%     54.86% # Writes before turning the bus around for reads
system.mem_ctrls.wrPerTurnAround::18              654     34.17%     89.03% # Writes before turning the bus around for reads
system.mem_ctrls.wrPerTurnAround::19              130      6.79%     95.82% # Writes before turning the bus around for reads
system.mem_ctrls.wrPerTurnAround::20               45      2.35%     98.17% # Writes before turning the bus around for reads
system.mem_ctrls.wrPerTurnAround::21               18      0.94%     99.11% # Writes before turning the bus around for reads
system.mem_ctrls.wrPerTurnAround::22                8      0.42%     99.53% # Writes before turning the bus around for reads
system.mem_ctrls.wrPerTurnAround::23                5      0.26%     99.79% # Writes before turning the bus around for reads
system.mem_ctrls.wrPerTurnAround::24                1      0.05%     99.84% # Writes before turning the bus around for reads
system.mem_ctrls.wrPerTurnAround::25                2      0.10%     99.95% # Writes before turning the bus around for reads
system.mem_ctrls.wrPerTurnAround::29                1      0.05%    100.00% # Writes before turning the bus around for reads
system.mem_ctrls.wrPerTurnAround::total          1914                       # Writes before turning the bus around for reads
system.mem_ctrls.totQLat                   2972876128                       # Total ticks spent queuing
system.mem_ctrls.totMemAccLat              5078444878                       # Total ticks spent from burst creation until serviced by the DRAM
system.mem_ctrls.totBusLat                  561485000                       # Total ticks spent in databus transfers
system.mem_ctrls.avgQLat                     26473.34                       # Average queueing delay per DRAM burst
system.mem_ctrls.avgBusLat                    5000.00                       # Average bus latency per DRAM burst
system.mem_ctrls.avgMemAccLat                45223.34                       # Average memory access latency per DRAM burst
system.mem_ctrls.avgRdBW                        19.30                       # Average DRAM read bandwidth in MiByte/s
system.mem_ctrls.avgWrBW                         5.63                       # Average achieved write bandwidth in MiByte/s
system.mem_ctrls.avgRdBWSys                     19.38                       # Average system read bandwidth in MiByte/s
system.mem_ctrls.avgWrBWSys                      5.63                       # Average system write bandwidth in MiByte/s
system.mem_ctrls.peakBW                      12800.00                       # Theoretical peak bandwidth in MiByte/s
system.mem_ctrls.busUtil                         0.19                       # Data bus utilization in percentage
system.mem_ctrls.busUtilRead                     0.15                       # Data bus utilization in percentage for reads
system.mem_ctrls.busUtilWrite                    0.04                       # Data bus utilization in percentage for writes
system.mem_ctrls.avgRdQLen                       1.27                       # Average read queue length when enqueuing
system.mem_ctrls.avgWrQLen                      24.21                       # Average write queue length when enqueuing
system.mem_ctrls.readRowHits                    77747                       # Number of row buffer hits during reads
system.mem_ctrls.writeRowHits                   10968                       # Number of row buffer hits during writes
system.mem_ctrls.readRowHitRate                 69.23                       # Row buffer hit rate for reads
system.mem_ctrls.writeRowHitRate                33.48                       # Row buffer hit rate for writes
system.mem_ctrls.avgGap                    2543780.70                       # Average gap between requests
system.mem_ctrls.pageHitRate                    61.16                       # Row buffer hit rate, read and write combined
system.mem_ctrls.memoryStateTime::IDLE   332070821759                       # Time in different power states
system.mem_ctrls.memoryStateTime::REF     12431900000                       # Time in different power states
system.mem_ctrls.memoryStateTime::PRE_PDN            0                       # Time in different power states
system.mem_ctrls.memoryStateTime::ACT     27797081991                       # Time in different power states
system.mem_ctrls.memoryStateTime::ACT_PDN            0                       # Time in different power states
system.mem_ctrls.actEnergy::0               172602360                       # Energy for activate commands per rank (pJ)
system.mem_ctrls.actEnergy::1               253229760                       # Energy for activate commands per rank (pJ)
system.mem_ctrls.preEnergy::0                94177875                       # Energy for precharge commands per rank (pJ)
system.mem_ctrls.preEnergy::1               138171000                       # Energy for precharge commands per rank (pJ)
system.mem_ctrls.readEnergy::0              366600000                       # Energy for read commands per rank (pJ)
system.mem_ctrls.readEnergy::1              509316600                       # Energy for read commands per rank (pJ)
system.mem_ctrls.writeEnergy::0              84881520                       # Energy for write commands per rank (pJ)
system.mem_ctrls.writeEnergy::1             127306080                       # Energy for write commands per rank (pJ)
system.mem_ctrls.refreshEnergy::0         24316796400                       # Energy for refresh commands per rank (pJ)
system.mem_ctrls.refreshEnergy::1         24316796400                       # Energy for refresh commands per rank (pJ)
system.mem_ctrls.actBackEnergy::0         20009435040                       # Energy for active background per rank (pJ)
system.mem_ctrls.actBackEnergy::1         24751380465                       # Energy for active background per rank (pJ)
system.mem_ctrls.preBackEnergy::0        205827738000                       # Energy for precharge background per rank (pJ)
system.mem_ctrls.preBackEnergy::1        201668136750                       # Energy for precharge background per rank (pJ)
system.mem_ctrls.totalEnergy::0          250872231195                       # Total energy per rank (pJ)
system.mem_ctrls.totalEnergy::1          251764337055                       # Total energy per rank (pJ)
system.mem_ctrls.averagePower::0           673.844676                       # Core power per rank (mW)
system.mem_ctrls.averagePower::1           676.240879                       # Core power per rank (mW)
system.cpu_voltage_domain.voltage                   1                       # Voltage in Volts
system.cpu_clk_domain.clock                       500                       # Clock period in ticks
system.tol2bus.trans_dist::ReadReq             938887                       # Transaction distribution
system.tol2bus.trans_dist::ReadResp            938887                       # Transaction distribution
system.tol2bus.trans_dist::WriteReq               607                       # Transaction distribution
system.tol2bus.trans_dist::WriteResp              607                       # Transaction distribution
system.tol2bus.trans_dist::Writeback           234943                       # Transaction distribution
system.tol2bus.trans_dist::HardPFReq           149990                       # Transaction distribution
system.tol2bus.trans_dist::WriteInvalidateReq           80                       # Transaction distribution
system.tol2bus.trans_dist::UpgradeReq           10517                       # Transaction distribution
system.tol2bus.trans_dist::SCUpgradeReq          6607                       # Transaction distribution
system.tol2bus.trans_dist::UpgradeResp          17124                       # Transaction distribution
system.tol2bus.trans_dist::SCUpgradeFailReq            1                       # Transaction distribution
system.tol2bus.trans_dist::UpgradeFailResp            1                       # Transaction distribution
system.tol2bus.trans_dist::ReadExReq           145785                       # Transaction distribution
system.tol2bus.trans_dist::ReadExResp          145785                       # Transaction distribution
system.tol2bus.pkt_count_system.cpu0.icache.mem_side::system.l2.cpu_side       166684                       # Packet count per connected master and slave (bytes)
system.tol2bus.pkt_count_system.cpu0.dcache.mem_side::system.l2.cpu_side       245841                       # Packet count per connected master and slave (bytes)
system.tol2bus.pkt_count_system.cpu0.itb.walker.dma::system.l2.cpu_side        16390                       # Packet count per connected master and slave (bytes)
system.tol2bus.pkt_count_system.cpu0.dtb.walker.dma::system.l2.cpu_side        17262                       # Packet count per connected master and slave (bytes)
system.tol2bus.pkt_count_system.cpu1.icache.mem_side::system.l2.cpu_side       188366                       # Packet count per connected master and slave (bytes)
system.tol2bus.pkt_count_system.cpu1.dcache.mem_side::system.l2.cpu_side       367975                       # Packet count per connected master and slave (bytes)
system.tol2bus.pkt_count_system.cpu1.itb.walker.dma::system.l2.cpu_side         9441                       # Packet count per connected master and slave (bytes)
system.tol2bus.pkt_count_system.cpu1.dtb.walker.dma::system.l2.cpu_side        21047                       # Packet count per connected master and slave (bytes)
system.tol2bus.pkt_count_system.cpu2.icache.mem_side::system.l2.cpu_side        75900                       # Packet count per connected master and slave (bytes)
system.tol2bus.pkt_count_system.cpu2.dcache.mem_side::system.l2.cpu_side       127455                       # Packet count per connected master and slave (bytes)
system.tol2bus.pkt_count_system.cpu2.itb.walker.dma::system.l2.cpu_side         5000                       # Packet count per connected master and slave (bytes)
system.tol2bus.pkt_count_system.cpu2.dtb.walker.dma::system.l2.cpu_side         9423                       # Packet count per connected master and slave (bytes)
system.tol2bus.pkt_count_system.cpu3.icache.mem_side::system.l2.cpu_side       510524                       # Packet count per connected master and slave (bytes)
system.tol2bus.pkt_count_system.cpu3.dcache.mem_side::system.l2.cpu_side       522614                       # Packet count per connected master and slave (bytes)
system.tol2bus.pkt_count_system.cpu3.itb.walker.dma::system.l2.cpu_side        16368                       # Packet count per connected master and slave (bytes)
system.tol2bus.pkt_count_system.cpu3.dtb.walker.dma::system.l2.cpu_side        56108                       # Packet count per connected master and slave (bytes)
system.tol2bus.pkt_count::total               2356398                       # Packet count per connected master and slave (bytes)
system.tol2bus.pkt_size_system.cpu0.icache.mem_side::system.l2.cpu_side      5333888                       # Cumulative packet size per connected master and slave (bytes)
system.tol2bus.pkt_size_system.cpu0.dcache.mem_side::system.l2.cpu_side      9070924                       # Cumulative packet size per connected master and slave (bytes)
system.tol2bus.pkt_size_system.cpu0.itb.walker.dma::system.l2.cpu_side        32380                       # Cumulative packet size per connected master and slave (bytes)
system.tol2bus.pkt_size_system.cpu0.dtb.walker.dma::system.l2.cpu_side        31708                       # Cumulative packet size per connected master and slave (bytes)
system.tol2bus.pkt_size_system.cpu1.icache.mem_side::system.l2.cpu_side      6027712                       # Cumulative packet size per connected master and slave (bytes)
system.tol2bus.pkt_size_system.cpu1.dcache.mem_side::system.l2.cpu_side     13782192                       # Cumulative packet size per connected master and slave (bytes)
system.tol2bus.pkt_size_system.cpu1.itb.walker.dma::system.l2.cpu_side         9812                       # Cumulative packet size per connected master and slave (bytes)
system.tol2bus.pkt_size_system.cpu1.dtb.walker.dma::system.l2.cpu_side        26348                       # Cumulative packet size per connected master and slave (bytes)
system.tol2bus.pkt_size_system.cpu2.icache.mem_side::system.l2.cpu_side      2428800                       # Cumulative packet size per connected master and slave (bytes)
system.tol2bus.pkt_size_system.cpu2.dcache.mem_side::system.l2.cpu_side      4416604                       # Cumulative packet size per connected master and slave (bytes)
system.tol2bus.pkt_size_system.cpu2.itb.walker.dma::system.l2.cpu_side         3468                       # Cumulative packet size per connected master and slave (bytes)
system.tol2bus.pkt_size_system.cpu2.dtb.walker.dma::system.l2.cpu_side         9160                       # Cumulative packet size per connected master and slave (bytes)
system.tol2bus.pkt_size_system.cpu3.icache.mem_side::system.l2.cpu_side     16336768                       # Cumulative packet size per connected master and slave (bytes)
system.tol2bus.pkt_size_system.cpu3.dcache.mem_side::system.l2.cpu_side     19015638                       # Cumulative packet size per connected master and slave (bytes)
system.tol2bus.pkt_size_system.cpu3.itb.walker.dma::system.l2.cpu_side        18256                       # Cumulative packet size per connected master and slave (bytes)
system.tol2bus.pkt_size_system.cpu3.dtb.walker.dma::system.l2.cpu_side        71180                       # Cumulative packet size per connected master and slave (bytes)
system.tol2bus.pkt_size::total               76614838                       # Cumulative packet size per connected master and slave (bytes)
system.tol2bus.snoops                          233425                       # Total snoops (count)
system.tol2bus.snoop_fanout::samples          1486113                       # Request fanout histogram
system.tol2bus.snoop_fanout::mean           23.100983                       # Request fanout histogram
system.tol2bus.snoop_fanout::stdev           0.301306                       # Request fanout histogram
system.tol2bus.snoop_fanout::underflows             0      0.00%      0.00% # Request fanout histogram
system.tol2bus.snoop_fanout::0                      0      0.00%      0.00% # Request fanout histogram
system.tol2bus.snoop_fanout::1                      0      0.00%      0.00% # Request fanout histogram
system.tol2bus.snoop_fanout::2                      0      0.00%      0.00% # Request fanout histogram
system.tol2bus.snoop_fanout::3                      0      0.00%      0.00% # Request fanout histogram
system.tol2bus.snoop_fanout::4                      0      0.00%      0.00% # Request fanout histogram
system.tol2bus.snoop_fanout::5                      0      0.00%      0.00% # Request fanout histogram
system.tol2bus.snoop_fanout::6                      0      0.00%      0.00% # Request fanout histogram
system.tol2bus.snoop_fanout::7                      0      0.00%      0.00% # Request fanout histogram
system.tol2bus.snoop_fanout::8                      0      0.00%      0.00% # Request fanout histogram
system.tol2bus.snoop_fanout::9                      0      0.00%      0.00% # Request fanout histogram
system.tol2bus.snoop_fanout::10                     0      0.00%      0.00% # Request fanout histogram
system.tol2bus.snoop_fanout::11                     0      0.00%      0.00% # Request fanout histogram
system.tol2bus.snoop_fanout::12                     0      0.00%      0.00% # Request fanout histogram
system.tol2bus.snoop_fanout::13                     0      0.00%      0.00% # Request fanout histogram
system.tol2bus.snoop_fanout::14                     0      0.00%      0.00% # Request fanout histogram
system.tol2bus.snoop_fanout::15                     0      0.00%      0.00% # Request fanout histogram
system.tol2bus.snoop_fanout::16                     0      0.00%      0.00% # Request fanout histogram
system.tol2bus.snoop_fanout::17                     0      0.00%      0.00% # Request fanout histogram
system.tol2bus.snoop_fanout::18                     0      0.00%      0.00% # Request fanout histogram
system.tol2bus.snoop_fanout::19                     0      0.00%      0.00% # Request fanout histogram
system.tol2bus.snoop_fanout::20                     0      0.00%      0.00% # Request fanout histogram
system.tol2bus.snoop_fanout::21                     0      0.00%      0.00% # Request fanout histogram
system.tol2bus.snoop_fanout::22                     0      0.00%      0.00% # Request fanout histogram
system.tol2bus.snoop_fanout::23               1336041     89.90%     89.90% # Request fanout histogram
system.tol2bus.snoop_fanout::24                150072     10.10%    100.00% # Request fanout histogram
system.tol2bus.snoop_fanout::overflows              0      0.00%    100.00% # Request fanout histogram
system.tol2bus.snoop_fanout::min_value             23                       # Request fanout histogram
system.tol2bus.snoop_fanout::max_value             24                       # Request fanout histogram
system.tol2bus.snoop_fanout::total            1486113                       # Request fanout histogram
system.tol2bus.reqLayer0.occupancy          904989634                       # Layer occupancy (ticks)
system.tol2bus.reqLayer0.utilization              0.2                       # Layer utilization (%)
system.tol2bus.snoopLayer0.occupancy             3000                       # Layer occupancy (ticks)
system.tol2bus.snoopLayer0.utilization            0.0                       # Layer utilization (%)
system.tol2bus.respLayer0.occupancy         125271650                       # Layer occupancy (ticks)
system.tol2bus.respLayer0.utilization             0.0                       # Layer utilization (%)
system.tol2bus.respLayer1.occupancy         151090369                       # Layer occupancy (ticks)
system.tol2bus.respLayer1.utilization             0.0                       # Layer utilization (%)
system.tol2bus.respLayer2.occupancy           8307743                       # Layer occupancy (ticks)
system.tol2bus.respLayer2.utilization             0.0                       # Layer utilization (%)
system.tol2bus.respLayer3.occupancy           9366221                       # Layer occupancy (ticks)
system.tol2bus.respLayer3.utilization             0.0                       # Layer utilization (%)
system.tol2bus.respLayer6.occupancy         141517807                       # Layer occupancy (ticks)
system.tol2bus.respLayer6.utilization             0.0                       # Layer utilization (%)
system.tol2bus.respLayer7.occupancy         220815230                       # Layer occupancy (ticks)
system.tol2bus.respLayer7.utilization             0.1                       # Layer utilization (%)
system.tol2bus.respLayer8.occupancy           6995494                       # Layer occupancy (ticks)
system.tol2bus.respLayer8.utilization             0.0                       # Layer utilization (%)
system.tol2bus.respLayer9.occupancy          14474488                       # Layer occupancy (ticks)
system.tol2bus.respLayer9.utilization             0.0                       # Layer utilization (%)
system.tol2bus.respLayer12.occupancy         57035879                       # Layer occupancy (ticks)
system.tol2bus.respLayer12.utilization            0.0                       # Layer utilization (%)
system.tol2bus.respLayer13.occupancy         82802468                       # Layer occupancy (ticks)
system.tol2bus.respLayer13.utilization            0.0                       # Layer utilization (%)
system.tol2bus.respLayer14.occupancy          4136745                       # Layer occupancy (ticks)
system.tol2bus.respLayer14.utilization            0.0                       # Layer utilization (%)
system.tol2bus.respLayer15.occupancy          7142236                       # Layer occupancy (ticks)
system.tol2bus.respLayer15.utilization            0.0                       # Layer utilization (%)
system.tol2bus.respLayer18.occupancy        383352612                       # Layer occupancy (ticks)
system.tol2bus.respLayer18.utilization            0.1                       # Layer utilization (%)
system.tol2bus.respLayer19.occupancy        327184025                       # Layer occupancy (ticks)
system.tol2bus.respLayer19.utilization            0.1                       # Layer utilization (%)
system.tol2bus.respLayer20.occupancy         11809990                       # Layer occupancy (ticks)
system.tol2bus.respLayer20.utilization            0.0                       # Layer utilization (%)
system.tol2bus.respLayer21.occupancy         38334724                       # Layer occupancy (ticks)
system.tol2bus.respLayer21.utilization            0.0                       # Layer utilization (%)
system.membus.trans_dist::ReadReq              110552                       # Transaction distribution
system.membus.trans_dist::ReadResp             110552                       # Transaction distribution
system.membus.trans_dist::WriteReq                607                       # Transaction distribution
system.membus.trans_dist::WriteResp               607                       # Transaction distribution
system.membus.trans_dist::Writeback             32684                       # Transaction distribution
system.membus.trans_dist::WriteInvalidateReq           80                       # Transaction distribution
system.membus.trans_dist::WriteInvalidateResp           80                       # Transaction distribution
system.membus.trans_dist::UpgradeReq            11787                       # Transaction distribution
system.membus.trans_dist::SCUpgradeReq           6234                       # Transaction distribution
system.membus.trans_dist::UpgradeResp            8544                       # Transaction distribution
system.membus.trans_dist::ReadExReq              4291                       # Transaction distribution
system.membus.trans_dist::ReadExResp             3519                       # Transaction distribution
system.membus.pkt_count_system.iocache.mem_side::system.mem_ctrls.port          162                       # Packet count per connected master and slave (bytes)
system.membus.pkt_count_system.iocache.mem_side::total          162                       # Packet count per connected master and slave (bytes)
system.membus.pkt_count_system.l2.mem_side::system.bridge.slave         2160                       # Packet count per connected master and slave (bytes)
system.membus.pkt_count_system.l2.mem_side::system.realview.gic.pio         1724                       # Packet count per connected master and slave (bytes)
system.membus.pkt_count_system.l2.mem_side::system.mem_ctrls.port       285489                       # Packet count per connected master and slave (bytes)
system.membus.pkt_count_system.l2.mem_side::total       289373                       # Packet count per connected master and slave (bytes)
system.membus.pkt_count::total                 289535                       # Packet count per connected master and slave (bytes)
system.membus.pkt_size_system.iocache.mem_side::system.mem_ctrls.port         5120                       # Cumulative packet size per connected master and slave (bytes)
system.membus.pkt_size_system.iocache.mem_side::total         5120                       # Cumulative packet size per connected master and slave (bytes)
system.membus.pkt_size_system.l2.mem_side::system.bridge.slave         4022                       # Cumulative packet size per connected master and slave (bytes)
system.membus.pkt_size_system.l2.mem_side::system.realview.gic.pio         3448                       # Cumulative packet size per connected master and slave (bytes)
system.membus.pkt_size_system.l2.mem_side::system.mem_ctrls.port      9306752                       # Cumulative packet size per connected master and slave (bytes)
system.membus.pkt_size_system.l2.mem_side::total      9314222                       # Cumulative packet size per connected master and slave (bytes)
system.membus.pkt_size::total                 9319342                       # Cumulative packet size per connected master and slave (bytes)
system.membus.snoops                            10251                       # Total snoops (count)
system.membus.snoop_fanout::samples            164293                       # Request fanout histogram
system.membus.snoop_fanout::mean                    1                       # Request fanout histogram
system.membus.snoop_fanout::stdev                   0                       # Request fanout histogram
system.membus.snoop_fanout::underflows              0      0.00%      0.00% # Request fanout histogram
system.membus.snoop_fanout::0                       0      0.00%      0.00% # Request fanout histogram
system.membus.snoop_fanout::1                  164293    100.00%    100.00% # Request fanout histogram
system.membus.snoop_fanout::2                       0      0.00%    100.00% # Request fanout histogram
system.membus.snoop_fanout::overflows               0      0.00%    100.00% # Request fanout histogram
system.membus.snoop_fanout::min_value               1                       # Request fanout histogram
system.membus.snoop_fanout::max_value               1                       # Request fanout histogram
system.membus.snoop_fanout::total              164293                       # Request fanout histogram
system.membus.reqLayer0.occupancy             1565497                       # Layer occupancy (ticks)
system.membus.reqLayer0.utilization               0.0                       # Layer utilization (%)
system.membus.reqLayer2.occupancy             1426500                       # Layer occupancy (ticks)
system.membus.reqLayer2.utilization               0.0                       # Layer utilization (%)
system.membus.reqLayer5.occupancy           445666001                       # Layer occupancy (ticks)
system.membus.reqLayer5.utilization               0.1                       # Layer utilization (%)
system.membus.respLayer2.occupancy             102995                       # Layer occupancy (ticks)
system.membus.respLayer2.utilization              0.0                       # Layer utilization (%)
system.membus.respLayer3.occupancy         1057742339                       # Layer occupancy (ticks)
system.membus.respLayer3.utilization              0.3                       # Layer utilization (%)
system.switch_cpus0.branchPred.lookups      225162502                       # Number of BP lookups
system.switch_cpus0.branchPred.condPredicted    151788766                       # Number of conditional branches predicted
system.switch_cpus0.branchPred.condIncorrect     12446475                       # Number of conditional branches incorrect
system.switch_cpus0.branchPred.BTBLookups    101282697                       # Number of BTB lookups
system.switch_cpus0.branchPred.BTBHits       89100641                       # Number of BTB hits
system.switch_cpus0.branchPred.BTBCorrect            0                       # Number of correct BTB predictions (this stat may not work properly.
system.switch_cpus0.branchPred.BTBHitPct    87.972224                       # BTB Hit Percentage
system.switch_cpus0.branchPred.usedRAS       34029165                       # Number of times the RAS was used to get a target.
system.switch_cpus0.branchPred.RASInCorrect      1334567                       # Number of incorrect RAS predictions.
system.switch_cpus0.dstage2_mmu.stage2_tlb.inst_hits            0                       # ITB inst hits
system.switch_cpus0.dstage2_mmu.stage2_tlb.inst_misses            0                       # ITB inst misses
system.switch_cpus0.dstage2_mmu.stage2_tlb.read_hits            0                       # DTB read hits
system.switch_cpus0.dstage2_mmu.stage2_tlb.read_misses            0                       # DTB read misses
system.switch_cpus0.dstage2_mmu.stage2_tlb.write_hits            0                       # DTB write hits
system.switch_cpus0.dstage2_mmu.stage2_tlb.write_misses            0                       # DTB write misses
system.switch_cpus0.dstage2_mmu.stage2_tlb.flush_tlb            0                       # Number of times complete TLB was flushed
system.switch_cpus0.dstage2_mmu.stage2_tlb.flush_tlb_mva            0                       # Number of times TLB was flushed by MVA
system.switch_cpus0.dstage2_mmu.stage2_tlb.flush_tlb_mva_asid            0                       # Number of times TLB was flushed by MVA & ASID
system.switch_cpus0.dstage2_mmu.stage2_tlb.flush_tlb_asid            0                       # Number of times TLB was flushed by ASID
system.switch_cpus0.dstage2_mmu.stage2_tlb.flush_entries            0                       # Number of entries that have been flushed from TLB
system.switch_cpus0.dstage2_mmu.stage2_tlb.align_faults            0                       # Number of TLB faults due to alignment restrictions
system.switch_cpus0.dstage2_mmu.stage2_tlb.prefetch_faults            0                       # Number of TLB faults due to prefetch
system.switch_cpus0.dstage2_mmu.stage2_tlb.domain_faults            0                       # Number of TLB faults due to domain restrictions
system.switch_cpus0.dstage2_mmu.stage2_tlb.perms_faults            0                       # Number of TLB faults due to permissions restrictions
system.switch_cpus0.dstage2_mmu.stage2_tlb.read_accesses            0                       # DTB read accesses
system.switch_cpus0.dstage2_mmu.stage2_tlb.write_accesses            0                       # DTB write accesses
system.switch_cpus0.dstage2_mmu.stage2_tlb.inst_accesses            0                       # ITB inst accesses
system.switch_cpus0.dstage2_mmu.stage2_tlb.hits            0                       # DTB hits
system.switch_cpus0.dstage2_mmu.stage2_tlb.misses            0                       # DTB misses
system.switch_cpus0.dstage2_mmu.stage2_tlb.accesses            0                       # DTB accesses
system.switch_cpus0.dtb.inst_hits                   0                       # ITB inst hits
system.switch_cpus0.dtb.inst_misses                 0                       # ITB inst misses
system.switch_cpus0.dtb.read_hits            61231172                       # DTB read hits
system.switch_cpus0.dtb.read_misses              6427                       # DTB read misses
system.switch_cpus0.dtb.write_hits           62529087                       # DTB write hits
system.switch_cpus0.dtb.write_misses             1928                       # DTB write misses
system.switch_cpus0.dtb.flush_tlb                   0                       # Number of times complete TLB was flushed
system.switch_cpus0.dtb.flush_tlb_mva               0                       # Number of times TLB was flushed by MVA
system.switch_cpus0.dtb.flush_tlb_mva_asid         2363                       # Number of times TLB was flushed by MVA & ASID
system.switch_cpus0.dtb.flush_tlb_asid            128                       # Number of times TLB was flushed by ASID
system.switch_cpus0.dtb.flush_entries             999                       # Number of entries that have been flushed from TLB
system.switch_cpus0.dtb.align_faults               18                       # Number of TLB faults due to alignment restrictions
system.switch_cpus0.dtb.prefetch_faults           284                       # Number of TLB faults due to prefetch
system.switch_cpus0.dtb.domain_faults               0                       # Number of TLB faults due to domain restrictions
system.switch_cpus0.dtb.perms_faults              523                       # Number of TLB faults due to permissions restrictions
system.switch_cpus0.dtb.read_accesses        61237599                       # DTB read accesses
system.switch_cpus0.dtb.write_accesses       62531015                       # DTB write accesses
system.switch_cpus0.dtb.inst_accesses               0                       # ITB inst accesses
system.switch_cpus0.dtb.hits                123760259                       # DTB hits
system.switch_cpus0.dtb.misses                   8355                       # DTB misses
system.switch_cpus0.dtb.accesses            123768614                       # DTB accesses
system.switch_cpus0.istage2_mmu.stage2_tlb.inst_hits            0                       # ITB inst hits
system.switch_cpus0.istage2_mmu.stage2_tlb.inst_misses            0                       # ITB inst misses
system.switch_cpus0.istage2_mmu.stage2_tlb.read_hits            0                       # DTB read hits
system.switch_cpus0.istage2_mmu.stage2_tlb.read_misses            0                       # DTB read misses
system.switch_cpus0.istage2_mmu.stage2_tlb.write_hits            0                       # DTB write hits
system.switch_cpus0.istage2_mmu.stage2_tlb.write_misses            0                       # DTB write misses
system.switch_cpus0.istage2_mmu.stage2_tlb.flush_tlb            0                       # Number of times complete TLB was flushed
system.switch_cpus0.istage2_mmu.stage2_tlb.flush_tlb_mva            0                       # Number of times TLB was flushed by MVA
system.switch_cpus0.istage2_mmu.stage2_tlb.flush_tlb_mva_asid            0                       # Number of times TLB was flushed by MVA & ASID
system.switch_cpus0.istage2_mmu.stage2_tlb.flush_tlb_asid            0                       # Number of times TLB was flushed by ASID
system.switch_cpus0.istage2_mmu.stage2_tlb.flush_entries            0                       # Number of entries that have been flushed from TLB
system.switch_cpus0.istage2_mmu.stage2_tlb.align_faults            0                       # Number of TLB faults due to alignment restrictions
system.switch_cpus0.istage2_mmu.stage2_tlb.prefetch_faults            0                       # Number of TLB faults due to prefetch
system.switch_cpus0.istage2_mmu.stage2_tlb.domain_faults            0                       # Number of TLB faults due to domain restrictions
system.switch_cpus0.istage2_mmu.stage2_tlb.perms_faults            0                       # Number of TLB faults due to permissions restrictions
system.switch_cpus0.istage2_mmu.stage2_tlb.read_accesses            0                       # DTB read accesses
system.switch_cpus0.istage2_mmu.stage2_tlb.write_accesses            0                       # DTB write accesses
system.switch_cpus0.istage2_mmu.stage2_tlb.inst_accesses            0                       # ITB inst accesses
system.switch_cpus0.istage2_mmu.stage2_tlb.hits            0                       # DTB hits
system.switch_cpus0.istage2_mmu.stage2_tlb.misses            0                       # DTB misses
system.switch_cpus0.istage2_mmu.stage2_tlb.accesses            0                       # DTB accesses
system.switch_cpus0.itb.inst_hits           427226238                       # ITB inst hits
system.switch_cpus0.itb.inst_misses              5106                       # ITB inst misses
system.switch_cpus0.itb.read_hits                   0                       # DTB read hits
system.switch_cpus0.itb.read_misses                 0                       # DTB read misses
system.switch_cpus0.itb.write_hits                  0                       # DTB write hits
system.switch_cpus0.itb.write_misses                0                       # DTB write misses
system.switch_cpus0.itb.flush_tlb                   0                       # Number of times complete TLB was flushed
system.switch_cpus0.itb.flush_tlb_mva               0                       # Number of times TLB was flushed by MVA
system.switch_cpus0.itb.flush_tlb_mva_asid         2363                       # Number of times TLB was flushed by MVA & ASID
system.switch_cpus0.itb.flush_tlb_asid            128                       # Number of times TLB was flushed by ASID
system.switch_cpus0.itb.flush_entries             645                       # Number of entries that have been flushed from TLB
system.switch_cpus0.itb.align_faults                0                       # Number of TLB faults due to alignment restrictions
system.switch_cpus0.itb.prefetch_faults             0                       # Number of TLB faults due to prefetch
system.switch_cpus0.itb.domain_faults               0                       # Number of TLB faults due to domain restrictions
system.switch_cpus0.itb.perms_faults              864                       # Number of TLB faults due to permissions restrictions
system.switch_cpus0.itb.read_accesses               0                       # DTB read accesses
system.switch_cpus0.itb.write_accesses              0                       # DTB write accesses
system.switch_cpus0.itb.inst_accesses       427231344                       # ITB inst accesses
system.switch_cpus0.itb.hits                427226238                       # DTB hits
system.switch_cpus0.itb.misses                   5106                       # DTB misses
system.switch_cpus0.itb.accesses            427231344                       # DTB accesses
system.switch_cpus0.numCycles               744479672                       # number of cpu cycles simulated
system.switch_cpus0.numWorkItemsStarted             0                       # number of work items this cpu started
system.switch_cpus0.numWorkItemsCompleted            0                       # number of work items this cpu completed
system.switch_cpus0.fetch.icacheStallCycles     14031940                       # Number of cycles fetch is stalled on an Icache miss
system.switch_cpus0.fetch.Insts            1298764124                       # Number of instructions fetch has processed
system.switch_cpus0.fetch.Branches          225162502                       # Number of branches that fetch encountered
system.switch_cpus0.fetch.predictedBranches    123129806                       # Number of branches that fetch has predicted taken
system.switch_cpus0.fetch.Cycles            716526732                       # Number of cycles fetch has run and was not squashing or blocked
system.switch_cpus0.fetch.SquashCycles       26688146                       # Number of cycles fetch has spent squashing
system.switch_cpus0.fetch.TlbCycles             44240                       # Number of cycles fetch has spent waiting for tlb
system.switch_cpus0.fetch.MiscStallCycles         3407                       # Number of cycles fetch has spent waiting on interrupts, or bad addresses, or out of MSHRs
system.switch_cpus0.fetch.PendingTrapStallCycles        17153                       # Number of stall cycles due to pending traps
system.switch_cpus0.fetch.PendingQuiesceStallCycles       230245                       # Number of stall cycles due to pending quiesce instructions
system.switch_cpus0.fetch.IcacheWaitRetryStallCycles         4442                       # Number of stall cycles due to full MSHR
system.switch_cpus0.fetch.CacheLines        427225113                       # Number of cache lines fetched
system.switch_cpus0.fetch.IcacheSquashes        23049                       # Number of outstanding Icache misses that were squashed
system.switch_cpus0.fetch.ItlbSquashes           4443                       # Number of outstanding ITLB misses that were squashed
system.switch_cpus0.fetch.rateDist::samples    744202232                       # Number of instructions fetched each cycle (Total)
system.switch_cpus0.fetch.rateDist::mean     1.948503                       # Number of instructions fetched each cycle (Total)
system.switch_cpus0.fetch.rateDist::stdev     1.036508                       # Number of instructions fetched each cycle (Total)
system.switch_cpus0.fetch.rateDist::underflows            0      0.00%      0.00% # Number of instructions fetched each cycle (Total)
[...]
system.cpu3.dcache.StoreCondReq_mshr_misses::switch_cpus3.data         2196                       # number of StoreCondReq MSHR misses
system.cpu3.dcache.StoreCondReq_mshr_misses::total         2196                       # number of StoreCondReq MSHR misses
system.cpu3.dcache.demand_mshr_misses::switch_cpus3.data       197849                       # number of demand (read+write) MSHR misses
system.cpu3.dcache.demand_mshr_misses::total       197849                       # number of demand (read+write) MSHR misses
system.cpu3.dcache.overall_mshr_misses::switch_cpus3.data       216780                       # number of overall MSHR misses
system.cpu3.dcache.overall_mshr_misses::total       216780                       # number of overall MSHR misses
system.cpu3.dcache.ReadReq_mshr_miss_latency::switch_cpus3.data   1271121390                       # number of ReadReq MSHR miss cycles
system.cpu3.dcache.ReadReq_mshr_miss_latency::total   1271121390                       # number of ReadReq MSHR miss cycles
system.cpu3.dcache.WriteReq_mshr_miss_latency::switch_cpus3.data    521148317                       # number of WriteReq MSHR miss cycles
system.cpu3.dcache.WriteReq_mshr_miss_latency::total    521148317                       # number of WriteReq MSHR miss cycles
system.cpu3.dcache.SoftPFReq_mshr_miss_latency::switch_cpus3.data    243908011                       # number of SoftPFReq MSHR miss cycles
system.cpu3.dcache.SoftPFReq_mshr_miss_latency::total    243908011                       # number of SoftPFReq MSHR miss cycles
system.cpu3.dcache.LoadLockedReq_mshr_miss_latency::switch_cpus3.data     27747751                       # number of LoadLockedReq MSHR miss cycles
system.cpu3.dcache.LoadLockedReq_mshr_miss_latency::total     27747751                       # number of LoadLockedReq MSHR miss cycles
system.cpu3.dcache.StoreCondReq_mshr_miss_latency::switch_cpus3.data      5175976                       # number of StoreCondReq MSHR miss cycles
system.cpu3.dcache.StoreCondReq_mshr_miss_latency::total      5175976                       # number of StoreCondReq MSHR miss cycles
system.cpu3.dcache.demand_mshr_miss_latency::switch_cpus3.data   1792269707                       # number of demand (read+write) MSHR miss cycles
system.cpu3.dcache.demand_mshr_miss_latency::total   1792269707                       # number of demand (read+write) MSHR miss cycles
system.cpu3.dcache.overall_mshr_miss_latency::switch_cpus3.data   2036177718                       # number of overall MSHR miss cycles
system.cpu3.dcache.overall_mshr_miss_latency::total   2036177718                       # number of overall MSHR miss cycles
system.cpu3.dcache.ReadReq_mshr_uncacheable_latency::switch_cpus3.data     40136002                       # number of ReadReq MSHR uncacheable cycles
system.cpu3.dcache.ReadReq_mshr_uncacheable_latency::total     40136002                       # number of ReadReq MSHR uncacheable cycles
system.cpu3.dcache.WriteReq_mshr_uncacheable_latency::switch_cpus3.data      2526501                       # number of WriteReq MSHR uncacheable cycles
system.cpu3.dcache.WriteReq_mshr_uncacheable_latency::total      2526501                       # number of WriteReq MSHR uncacheable cycles
system.cpu3.dcache.overall_mshr_uncacheable_latency::switch_cpus3.data     42662503                       # number of overall MSHR uncacheable cycles
system.cpu3.dcache.overall_mshr_uncacheable_latency::total     42662503                       # number of overall MSHR uncacheable cycles
system.cpu3.dcache.ReadReq_mshr_miss_rate::switch_cpus3.data     0.002289                       # mshr miss rate for ReadReq accesses
system.cpu3.dcache.ReadReq_mshr_miss_rate::total     0.002289                       # mshr miss rate for ReadReq accesses
system.cpu3.dcache.WriteReq_mshr_miss_rate::switch_cpus3.data     0.001019                       # mshr miss rate for WriteReq accesses
system.cpu3.dcache.WriteReq_mshr_miss_rate::total     0.001019                       # mshr miss rate for WriteReq accesses
system.cpu3.dcache.SoftPFReq_mshr_miss_rate::switch_cpus3.data     0.683134                       # mshr miss rate for SoftPFReq accesses
system.cpu3.dcache.SoftPFReq_mshr_miss_rate::total     0.683134                       # mshr miss rate for SoftPFReq accesses
system.cpu3.dcache.LoadLockedReq_mshr_miss_rate::switch_cpus3.data     0.041479                       # mshr miss rate for LoadLockedReq accesses
system.cpu3.dcache.LoadLockedReq_mshr_miss_rate::total     0.041479                       # mshr miss rate for LoadLockedReq accesses
system.cpu3.dcache.StoreCondReq_mshr_miss_rate::switch_cpus3.data     0.035954                       # mshr miss rate for StoreCondReq accesses
system.cpu3.dcache.StoreCondReq_mshr_miss_rate::total     0.035954                       # mshr miss rate for StoreCondReq accesses
system.cpu3.dcache.demand_mshr_miss_rate::switch_cpus3.data     0.001646                       # mshr miss rate for demand accesses
system.cpu3.dcache.demand_mshr_miss_rate::total     0.001646                       # mshr miss rate for demand accesses
system.cpu3.dcache.overall_mshr_miss_rate::switch_cpus3.data     0.001803                       # mshr miss rate for overall accesses
system.cpu3.dcache.overall_mshr_miss_rate::total     0.001803                       # mshr miss rate for overall accesses
system.cpu3.dcache.ReadReq_avg_mshr_miss_latency::switch_cpus3.data  9352.050780                       # average ReadReq mshr miss latency
system.cpu3.dcache.ReadReq_avg_mshr_miss_latency::total  9352.050780                       # average ReadReq mshr miss latency
system.cpu3.dcache.WriteReq_avg_mshr_miss_latency::switch_cpus3.data  8415.118957                       # average WriteReq mshr miss latency
system.cpu3.dcache.WriteReq_avg_mshr_miss_latency::total  8415.118957                       # average WriteReq mshr miss latency
system.cpu3.dcache.SoftPFReq_avg_mshr_miss_latency::switch_cpus3.data 12884.053193                       # average SoftPFReq mshr miss latency
system.cpu3.dcache.SoftPFReq_avg_mshr_miss_latency::total 12884.053193                       # average SoftPFReq mshr miss latency
system.cpu3.dcache.LoadLockedReq_avg_mshr_miss_latency::switch_cpus3.data 10855.927621                       # average LoadLockedReq mshr miss latency
system.cpu3.dcache.LoadLockedReq_avg_mshr_miss_latency::total 10855.927621                       # average LoadLockedReq mshr miss latency
system.cpu3.dcache.StoreCondReq_avg_mshr_miss_latency::switch_cpus3.data  2357.001821                       # average StoreCondReq mshr miss latency
system.cpu3.dcache.StoreCondReq_avg_mshr_miss_latency::total  2357.001821                       # average StoreCondReq mshr miss latency
system.cpu3.dcache.demand_avg_mshr_miss_latency::switch_cpus3.data  9058.775667                       # average overall mshr miss latency
system.cpu3.dcache.demand_avg_mshr_miss_latency::total  9058.775667                       # average overall mshr miss latency
system.cpu3.dcache.overall_avg_mshr_miss_latency::switch_cpus3.data  9392.830141                       # average overall mshr miss latency
system.cpu3.dcache.overall_avg_mshr_miss_latency::total  9392.830141                       # average overall mshr miss latency
system.cpu3.dcache.ReadReq_avg_mshr_uncacheable_latency::switch_cpus3.data          inf                       # average ReadReq mshr uncacheable latency
system.cpu3.dcache.ReadReq_avg_mshr_uncacheable_latency::total          inf                       # average ReadReq mshr uncacheable latency
system.cpu3.dcache.WriteReq_avg_mshr_uncacheable_latency::switch_cpus3.data          inf                       # average WriteReq mshr uncacheable latency
system.cpu3.dcache.WriteReq_avg_mshr_uncacheable_latency::total          inf                       # average WriteReq mshr uncacheable latency
system.cpu3.dcache.overall_avg_mshr_uncacheable_latency::switch_cpus3.data          inf                       # average overall mshr uncacheable latency
system.cpu3.dcache.overall_avg_mshr_uncacheable_latency::total          inf                       # average overall mshr uncacheable latency
system.cpu3.dcache.no_allocate_misses               0                       # Number of misses that were no-allocate
system.iocache.tags.replacements                   66                       # number of replacements
system.iocache.tags.tagsinuse                1.107348                       # Cycle average of tags in use
system.iocache.tags.total_refs                      0                       # Total number of references to valid blocks.
system.iocache.tags.sampled_refs                   82                       # Sample count of references to valid blocks.
system.iocache.tags.avg_refs                        0                       # Average number of references to valid blocks.
system.iocache.tags.warmup_cycle         3232439379000                       # Cycle when the warmup percentage was hit.
system.iocache.tags.occ_blocks::realview.ide     1.107348                       # Average occupied blocks per requestor
system.iocache.tags.occ_percent::realview.ide     0.069209                       # Average percentage of cache occupancy
system.iocache.tags.occ_percent::total       0.069209                       # Average percentage of cache occupancy
system.iocache.tags.occ_task_id_blocks::1023           16                       # Occupied blocks per task id
system.iocache.tags.age_task_id_blocks_1023::3           16                       # Occupied blocks per task id
system.iocache.tags.occ_task_id_percent::1023            1                       # Percentage of cache occupancy per task id
system.iocache.tags.tag_accesses                  738                       # Number of tag accesses
system.iocache.tags.data_accesses                 738                       # Number of data accesses
system.iocache.WriteInvalidateReq_hits::realview.ide           80                       # number of WriteInvalidateReq hits
system.iocache.WriteInvalidateReq_hits::total           80                       # number of WriteInvalidateReq hits
system.iocache.ReadReq_misses::realview.ide            2                       # number of ReadReq misses
system.iocache.ReadReq_misses::total                2                       # number of ReadReq misses
system.iocache.demand_misses::realview.ide            2                       # number of demand (read+write) misses
system.iocache.demand_misses::total                 2                       # number of demand (read+write) misses
system.iocache.overall_misses::realview.ide            2                       # number of overall misses
system.iocache.overall_misses::total                2                       # number of overall misses
system.iocache.ReadReq_miss_latency::realview.ide       219998                       # number of ReadReq miss cycles
system.iocache.ReadReq_miss_latency::total       219998                       # number of ReadReq miss cycles
system.iocache.demand_miss_latency::realview.ide       219998                       # number of demand (read+write) miss cycles
system.iocache.demand_miss_latency::total       219998                       # number of demand (read+write) miss cycles
system.iocache.overall_miss_latency::realview.ide       219998                       # number of overall miss cycles
system.iocache.overall_miss_latency::total       219998                       # number of overall miss cycles
system.iocache.ReadReq_accesses::realview.ide            2                       # number of ReadReq accesses(hits+misses)
system.iocache.ReadReq_accesses::total              2                       # number of ReadReq accesses(hits+misses)
system.iocache.WriteInvalidateReq_accesses::realview.ide           80                       # number of WriteInvalidateReq accesses(hits+misses)
system.iocache.WriteInvalidateReq_accesses::total           80                       # number of WriteInvalidateReq accesses(hits+misses)
system.iocache.demand_accesses::realview.ide            2                       # number of demand (read+write) accesses
system.iocache.demand_accesses::total               2                       # number of demand (read+write) accesses
system.iocache.overall_accesses::realview.ide            2                       # number of overall (read+write) accesses
system.iocache.overall_accesses::total              2                       # number of overall (read+write) accesses
system.iocache.ReadReq_miss_rate::realview.ide            1                       # miss rate for ReadReq accesses
system.iocache.ReadReq_miss_rate::total             1                       # miss rate for ReadReq accesses
system.iocache.demand_miss_rate::realview.ide            1                       # miss rate for demand accesses
system.iocache.demand_miss_rate::total              1                       # miss rate for demand accesses
system.iocache.overall_miss_rate::realview.ide            1                       # miss rate for overall accesses
system.iocache.overall_miss_rate::total             1                       # miss rate for overall accesses
system.iocache.ReadReq_avg_miss_latency::realview.ide       109999                       # average ReadReq miss latency
system.iocache.ReadReq_avg_miss_latency::total       109999                       # average ReadReq miss latency
system.iocache.demand_avg_miss_latency::realview.ide       109999                       # average overall miss latency
system.iocache.demand_avg_miss_latency::total       109999                       # average overall miss latency
system.iocache.overall_avg_miss_latency::realview.ide       109999                       # average overall miss latency
system.iocache.overall_avg_miss_latency::total       109999                       # average overall miss latency
system.iocache.blocked_cycles::no_mshrs             0                       # number of cycles access was blocked
system.iocache.blocked_cycles::no_targets            0                       # number of cycles access was blocked
system.iocache.blocked::no_mshrs                    0                       # number of cycles access was blocked
system.iocache.blocked::no_targets                  0                       # number of cycles access was blocked
system.iocache.avg_blocked_cycles::no_mshrs          nan                       # average number of cycles each access was blocked
system.iocache.avg_blocked_cycles::no_targets          nan                       # average number of cycles each access was blocked
system.iocache.fast_writes                         80                       # number of fast writes performed
system.iocache.cache_copies                         0                       # number of cache copies performed
system.iocache.ReadReq_mshr_misses::realview.ide            2                       # number of ReadReq MSHR misses
system.iocache.ReadReq_mshr_misses::total            2                       # number of ReadReq MSHR misses
system.iocache.WriteInvalidateReq_mshr_misses::realview.ide           80                       # number of WriteInvalidateReq MSHR misses
system.iocache.WriteInvalidateReq_mshr_misses::total           80                       # number of WriteInvalidateReq MSHR misses
system.iocache.demand_mshr_misses::realview.ide            2                       # number of demand (read+write) MSHR misses
system.iocache.demand_mshr_misses::total            2                       # number of demand (read+write) MSHR misses
system.iocache.overall_mshr_misses::realview.ide            2                       # number of overall MSHR misses
system.iocache.overall_mshr_misses::total            2                       # number of overall MSHR misses
system.iocache.ReadReq_mshr_miss_latency::realview.ide       115998                       # number of ReadReq MSHR miss cycles
system.iocache.ReadReq_mshr_miss_latency::total       115998                       # number of ReadReq MSHR miss cycles
system.iocache.WriteInvalidateReq_mshr_miss_latency::realview.ide      6292995                       # number of WriteInvalidateReq MSHR miss cycles
system.iocache.WriteInvalidateReq_mshr_miss_latency::total      6292995                       # number of WriteInvalidateReq MSHR miss cycles
system.iocache.demand_mshr_miss_latency::realview.ide       115998                       # number of demand (read+write) MSHR miss cycles
system.iocache.demand_mshr_miss_latency::total       115998                       # number of demand (read+write) MSHR miss cycles
system.iocache.overall_mshr_miss_latency::realview.ide       115998                       # number of overall MSHR miss cycles
system.iocache.overall_mshr_miss_latency::total       115998                       # number of overall MSHR miss cycles
system.iocache.ReadReq_mshr_miss_rate::realview.ide            1                       # mshr miss rate for ReadReq accesses
system.iocache.ReadReq_mshr_miss_rate::total            1                       # mshr miss rate for ReadReq accesses
system.iocache.WriteInvalidateReq_mshr_miss_rate::realview.ide            1                       # mshr miss rate for WriteInvalidateReq accesses
system.iocache.WriteInvalidateReq_mshr_miss_rate::total            1                       # mshr miss rate for WriteInvalidateReq accesses
system.iocache.demand_mshr_miss_rate::realview.ide            1                       # mshr miss rate for demand accesses
system.iocache.demand_mshr_miss_rate::total            1                       # mshr miss rate for demand accesses
system.iocache.overall_mshr_miss_rate::realview.ide            1                       # mshr miss rate for overall accesses
system.iocache.overall_mshr_miss_rate::total            1                       # mshr miss rate for overall accesses
system.iocache.ReadReq_avg_mshr_miss_latency::realview.ide        57999                       # average ReadReq mshr miss latency
system.iocache.ReadReq_avg_mshr_miss_latency::total        57999                       # average ReadReq mshr miss latency
system.iocache.WriteInvalidateReq_avg_mshr_miss_latency::realview.ide 78662.437500                       # average WriteInvalidateReq mshr miss latency
system.iocache.WriteInvalidateReq_avg_mshr_miss_latency::total 78662.437500                       # average WriteInvalidateReq mshr miss latency
system.iocache.demand_avg_mshr_miss_latency::realview.ide        57999                       # average overall mshr miss latency
system.iocache.demand_avg_mshr_miss_latency::total        57999                       # average overall mshr miss latency
system.iocache.overall_avg_mshr_miss_latency::realview.ide        57999                       # average overall mshr miss latency
system.iocache.overall_avg_mshr_miss_latency::total        57999                       # average overall mshr miss latency
system.iocache.no_allocate_misses                   0                       # Number of misses that were no-allocate
system.switch_cpus0.kern.inst.arm                   0                       # number of arm instructions executed
system.switch_cpus0.kern.inst.quiesce               0                       # number of quiesce instructions executed
system.switch_cpus1.kern.inst.arm                   0                       # number of arm instructions executed
system.switch_cpus1.kern.inst.quiesce               0                       # number of quiesce instructions executed
system.switch_cpus2.kern.inst.arm                   0                       # number of arm instructions executed
system.switch_cpus2.kern.inst.quiesce               0                       # number of quiesce instructions executed
system.switch_cpus3.kern.inst.arm                   0                       # number of arm instructions executed
system.switch_cpus3.kern.inst.quiesce               0                       # number of quiesce instructions executed

---------- End Simulation Statistics   ----------
