gem5 Simulator System.  http://gem5.org
gem5 is copyrighted software; use the --copyright option for details.

gem5 compiled Feb 28 2015 11:49:47
gem5 started Feb 28 2015 12:09:48
gem5 executing on ubuntu
command line: ../build/ARM/gem5.opt --debug-flags=PseudoInst -d m5out/restore ../configs/example/fs.py --machine-type=VExpress_EMM -n 4 --caches --l2cache --cpu-type=arm_detailed --checkpoint-dir=m5out/cpt -r 1
Global frequency set at 1000000000000 ticks per second
info: kernel located at: /home/nimishg/676_pro/bench+disk/gem5_files/arm/binaries/vmlinux-3.3-arm-vexpress-emm-pcie
      0: system.switch_cpus0.isa: ISA system set to: 0x4d2ed00 0x4d2ed00
      0: system.switch_cpus1.isa: ISA system set to: 0x4d2ed00 0x4d2ed00
      0: system.switch_cpus2.isa: ISA system set to: 0x4d2ed00 0x4d2ed00
      0: system.switch_cpus3.isa: ISA system set to: 0x4d2ed00 0x4d2ed00
      0: system.cpu0.isa: ISA system set to: 0x4d2ed00 0x4d2ed00
      0: system.cpu1.isa: ISA system set to: 0x4d2ed00 0x4d2ed00
      0: system.cpu2.isa: ISA system set to: 0x4d2ed00 0x4d2ed00
      0: system.cpu3.isa: ISA system set to: 0x4d2ed00 0x4d2ed00
Switch at curTick count:10000
info: Entering event queue @ 2850101803500.  Starting simulation...
Switched CPUS @ tick 2850101813500
switching cpus
**** REAL SIMULATION ****
info: Entering event queue @ 2850101813500.  Starting simulation...
2850106468500: global: PseudoInst::quiesceSkip()
2850107203500: global: PseudoInst::quiesceSkip()
2850108609500: global: PseudoInst::quiesceSkip()
2850109289500: global: PseudoInst::quiesceSkip()
2850110013000: global: PseudoInst::quiesceSkip()
2850110339000: global: PseudoInst::quiesceSkip()
2850112400500: global: PseudoInst::quiesceSkip()
2850112949000: global: PseudoInst::quiesceSkip()
2850115464500: global: PseudoInst::quiesceSkip()
2850115849500: global: PseudoInst::quiesceSkip()
2850115953500: global: PseudoInst::quiesceSkip()
2850119083500: global: PseudoInst::quiesceSkip()
2850119129500: global: PseudoInst::quiesceSkip()
2850121644500: global: PseudoInst::quiesceSkip()
2850121690500: global: PseudoInst::quiesceSkip()
2850124205500: global: PseudoInst::quiesceSkip()
2850124251500: global: PseudoInst::quiesceSkip()
2850126749500: global: PseudoInst::quiesceSkip()
2850126795500: global: PseudoInst::quiesceSkip()
2850129280500: global: PseudoInst::quiesceSkip()
2850129326500: global: PseudoInst::quiesceSkip()
2850130147500: global: PseudoInst::quiesceSkip()
2850130193500: global: PseudoInst::quiesceSkip()
2850131703500: global: PseudoInst::quiesceSkip()
2850132335500: global: PseudoInst::quiesceSkip()
2850132417500: global: PseudoInst::quiesceSkip()
2850132852000: global: PseudoInst::quiesceSkip()
2850133116000: global: PseudoInst::quiesceSkip()
2850133475500: global: PseudoInst::quiesceSkip()
2850133639500: global: PseudoInst::quiesceSkip()
2850134102000: global: PseudoInst::quiesceSkip()
2850134184000: global: PseudoInst::quiesceSkip()
2850135176500: global: PseudoInst::quiesceSkip()
2850135222500: global: PseudoInst::quiesceSkip()
2850136627500: global: PseudoInst::quiesceSkip()
2850136868500: global: PseudoInst::quiesceSkip()
2850136950500: global: PseudoInst::quiesceSkip()
2850137311500: global: PseudoInst::quiesceSkip()
2850137589500: global: PseudoInst::quiesceSkip()
2850137757000: global: PseudoInst::quiesceSkip()
2850138555000: global: PseudoInst::quiesceSkip()
2850138895500: global: PseudoInst::quiesceSkip()
2850142251500: global: PseudoInst::quiesceSkip()
2850144889500: global: PseudoInst::quiesceSkip()
2850147262500: global: PseudoInst::quiesceSkip()
2850149938500: global: PseudoInst::quiesceSkip()
2850151830500: global: PseudoInst::quiesceSkip()
2850152863000: global: PseudoInst::quiesceSkip()
2850153386500: global: PseudoInst::quiesceSkip()
2850156770500: global: PseudoInst::quiesceSkip()
2850158104000: global: PseudoInst::quiesceSkip()
2850158712000: global: PseudoInst::quiesceSkip()
2850160174000: global: PseudoInst::quiesceSkip()
2850160945000: global: PseudoInst::quiesceSkip()
2850161858500: global: PseudoInst::quiesceSkip()
2850162332000: global: PseudoInst::quiesceSkip()
2850162705000: global: PseudoInst::quiesceSkip()
2850163021500: global: PseudoInst::quiesceSkip()
2850164770500: global: PseudoInst::quiesceSkip()
2850165565500: global: PseudoInst::quiesceSkip()
2850166047000: global: PseudoInst::quiesceSkip()
2850167406500: global: PseudoInst::quiesceSkip()
2850168197500: global: PseudoInst::quiesceSkip()
2850168734500: global: PseudoInst::quiesceSkip()
2850169993500: global: PseudoInst::quiesceSkip()
2850170426500: global: PseudoInst::quiesceSkip()
2850172998000: global: PseudoInst::quiesceSkip()
2850173451000: global: PseudoInst::quiesceSkip()
2850174629500: global: PseudoInst::quiesceSkip()
2850175352000: global: PseudoInst::quiesceSkip()
2850175792000: global: PseudoInst::quiesceSkip()
2850176970500: global: PseudoInst::quiesceSkip()
2850177701000: global: PseudoInst::quiesceSkip()
2850178089500: global: PseudoInst::quiesceSkip()
2850178311500: global: PseudoInst::quiesceSkip()
2850181883500: global: PseudoInst::quiesceSkip()
2850182621000: global: PseudoInst::quiesceSkip()
2850183001500: global: PseudoInst::quiesceSkip()
2850184179500: global: PseudoInst::quiesceSkip()
2850184902000: global: PseudoInst::quiesceSkip()
2850185282500: global: PseudoInst::quiesceSkip()
2850186460500: global: PseudoInst::quiesceSkip()
2850187183000: global: PseudoInst::quiesceSkip()
2850187563500: global: PseudoInst::quiesceSkip()
2850188741500: global: PseudoInst::quiesceSkip()
2850189464000: global: PseudoInst::quiesceSkip()
2850189844500: global: PseudoInst::quiesceSkip()
2850191022500: global: PseudoInst::quiesceSkip()
2850191745000: global: PseudoInst::quiesceSkip()
2850192125500: global: PseudoInst::quiesceSkip()
2850193303500: global: PseudoInst::quiesceSkip()
2850194026000: global: PseudoInst::quiesceSkip()
2850194406500: global: PseudoInst::quiesceSkip()
2850195815500: global: PseudoInst::quiesceSkip()
2850196546000: global: PseudoInst::quiesceSkip()
2850196934500: global: PseudoInst::quiesceSkip()
2850198105500: global: PseudoInst::quiesceSkip()
2850198828000: global: PseudoInst::quiesceSkip()
2850199208500: global: PseudoInst::quiesceSkip()
2850200386500: global: PseudoInst::quiesceSkip()
2850201109000: global: PseudoInst::quiesceSkip()
2850201489500: global: PseudoInst::quiesceSkip()
2850202667500: global: PseudoInst::quiesceSkip()
2850203390000: global: PseudoInst::quiesceSkip()
2850203775500: global: PseudoInst::quiesceSkip()
2850204962500: global: PseudoInst::quiesceSkip()
2850205686000: global: PseudoInst::quiesceSkip()
2850206066500: global: PseudoInst::quiesceSkip()
2850207246500: global: PseudoInst::quiesceSkip()
2850207393500: global: PseudoInst::quiesceSkip()
2850209204000: global: PseudoInst::quiesceSkip()
2850209836500: global: PseudoInst::quiesceSkip()
2850211255500: global: PseudoInst::quiesceSkip()
2850211994000: global: PseudoInst::quiesceSkip()
2850212801000: global: PseudoInst::quiesceSkip()
2850213967500: global: PseudoInst::quiesceSkip()
2850214691000: global: PseudoInst::quiesceSkip()
2850215284000: global: PseudoInst::quiesceSkip()
2850216640500: global: PseudoInst::quiesceSkip()
2850217386000: global: PseudoInst::quiesceSkip()
2850249346500: global: PseudoInst::quiesceSkip()
2850250924500: global: PseudoInst::quiesceSkip()
2850251688000: global: PseudoInst::quiesceSkip()
2850281828000: global: PseudoInst::quiesceSkip()
2850283061500: global: PseudoInst::quiesceSkip()
2850283802500: global: PseudoInst::quiesceSkip()
2850313865500: global: PseudoInst::quiesceSkip()
2850315051500: global: PseudoInst::quiesceSkip()
2850315870000: global: PseudoInst::quiesceSkip()
2850345941000: global: PseudoInst::quiesceSkip()
2850347120500: global: PseudoInst::quiesceSkip()
2850347870000: global: PseudoInst::quiesceSkip()
2850377906000: global: PseudoInst::quiesceSkip()
2850379091500: global: PseudoInst::quiesceSkip()
2850379841000: global: PseudoInst::quiesceSkip()
2850409896500: global: PseudoInst::quiesceSkip()
2850411075500: global: PseudoInst::quiesceSkip()
2850411825000: global: PseudoInst::quiesceSkip()
2850441881500: global: PseudoInst::quiesceSkip()
2850443067500: global: PseudoInst::quiesceSkip()
2850443817000: global: PseudoInst::quiesceSkip()
2850473894500: global: PseudoInst::quiesceSkip()
2850475073500: global: PseudoInst::quiesceSkip()
2850475823000: global: PseudoInst::quiesceSkip()
2850505857500: global: PseudoInst::quiesceSkip()
2850507272500: global: PseudoInst::quiesceSkip()
2850508022000: global: PseudoInst::quiesceSkip()
2850538060000: global: PseudoInst::quiesceSkip()
2850539239500: global: PseudoInst::quiesceSkip()
2850539989000: global: PseudoInst::quiesceSkip()
2850570031000: global: PseudoInst::quiesceSkip()
2850571216500: global: PseudoInst::quiesceSkip()
2850571389000: global: PseudoInst::quiesceSkip()
2850573183000: global: PseudoInst::quiesceSkip()
2850603229000: global: PseudoInst::quiesceSkip()
2850604408500: global: PseudoInst::quiesceSkip()
2850605158000: global: PseudoInst::quiesceSkip()
2850635217500: global: PseudoInst::quiesceSkip()
2850636403500: global: PseudoInst::quiesceSkip()
2850637153000: global: PseudoInst::quiesceSkip()
2850667216500: global: PseudoInst::quiesceSkip()
2850668415500: global: PseudoInst::quiesceSkip()
2850669172000: global: PseudoInst::quiesceSkip()
2850699209000: global: PseudoInst::quiesceSkip()
2850700393500: global: PseudoInst::quiesceSkip()
2850701143000: global: PseudoInst::quiesceSkip()
2850731179000: global: PseudoInst::quiesceSkip()
2850732356500: global: PseudoInst::quiesceSkip()
2850733106000: global: PseudoInst::quiesceSkip()
2850763128500: global: PseudoInst::quiesceSkip()
2850763341500: global: PseudoInst::quiesceSkip()
2850766532500: global: PseudoInst::quiesceSkip()
2850767280000: global: PseudoInst::quiesceSkip()
2850797409000: global: PseudoInst::quiesceSkip()
2850798643500: global: PseudoInst::quiesceSkip()
2850799384500: global: PseudoInst::quiesceSkip()
2850829519000: global: PseudoInst::quiesceSkip()
2850830698500: global: PseudoInst::quiesceSkip()
2850831448000: global: PseudoInst::quiesceSkip()
2850861474000: global: PseudoInst::quiesceSkip()
2850862653500: global: PseudoInst::quiesceSkip()
2850863403000: global: PseudoInst::quiesceSkip()
2850893488000: global: PseudoInst::quiesceSkip()
2850894667500: global: PseudoInst::quiesceSkip()
2850895417000: global: PseudoInst::quiesceSkip()
2850925479500: global: PseudoInst::quiesceSkip()
2850926658500: global: PseudoInst::quiesceSkip()
2850927408000: global: PseudoInst::quiesceSkip()
2850957485000: global: PseudoInst::quiesceSkip()
2850958894500: global: PseudoInst::quiesceSkip()
2850959644000: global: PseudoInst::quiesceSkip()
2850989718500: global: PseudoInst::quiesceSkip()
2850990897500: global: PseudoInst::quiesceSkip()
2850991647000: global: PseudoInst::quiesceSkip()
2851021702500: global: PseudoInst::quiesceSkip()
2851022881500: global: PseudoInst::quiesceSkip()
2851023054000: global: PseudoInst::quiesceSkip()
2851024892000: global: PseudoInst::quiesceSkip()
2851054964500: global: PseudoInst::quiesceSkip()
2851056150500: global: PseudoInst::quiesceSkip()
2851056900000: global: PseudoInst::quiesceSkip()
2851086746500: global: PseudoInst::quiesceSkip()
2851087315500: global: PseudoInst::quiesceSkip()
2851087843000: global: PseudoInst::quiesceSkip()
2851090066500: global: PseudoInst::quiesceSkip()
2851091467000: global: PseudoInst::quiesceSkip()
2851094594000: global: PseudoInst::quiesceSkip()
2851095615000: global: PseudoInst::quiesceSkip()
2851097247500: global: PseudoInst::quiesceSkip()
2851098284500: global: PseudoInst::quiesceSkip()
2851098329500: global: PseudoInst::quiesceSkip()
2851098596000: global: PseudoInst::quiesceSkip()
2851099057500: global: PseudoInst::quiesceSkip()
2851099101500: global: PseudoInst::quiesceSkip()
2851099250500: global: PseudoInst::quiesceSkip()
2851099397500: global: PseudoInst::quiesceSkip()
2851100449000: global: PseudoInst::quiesceSkip()
2851100484000: global: PseudoInst::quiesceSkip()
2851100620000: global: PseudoInst::quiesceSkip()
2851101198000: global: PseudoInst::quiesceSkip()
2851101199000: global: PseudoInst::quiesceSkip()
2851101222000: global: PseudoInst::quiesceSkip()
2851101242000: global: PseudoInst::quiesce()
2851101464500: global: PseudoInst::quiesce()
2851101488000: global: PseudoInst::quiesceSkip()
2851101669000: global: PseudoInst::quiesce()
2851102325000: global: PseudoInst::quiesce()
2851113705500: global: PseudoInst::quiesceSkip()
2851116573500: global: PseudoInst::quiesceSkip()
2851118838000: global: PseudoInst::quiesceSkip()
2851127491000: global: PseudoInst::quiesceSkip()
2851129524000: global: PseudoInst::quiesceSkip()
2851130781500: global: PseudoInst::quiesceSkip()
2851131531000: global: PseudoInst::quiesceSkip()
2851135295500: global: PseudoInst::quiesceSkip()
2851139220500: global: PseudoInst::quiesceSkip()
2851142333500: global: PseudoInst::quiesceSkip()
2851143298500: global: PseudoInst::quiesceSkip()
2851144892500: global: PseudoInst::quiesceSkip()
2851151335000: global: PseudoInst::quiesceSkip()
2851156356000: global: PseudoInst::quiesceSkip()
2851157989000: global: PseudoInst::quiesceSkip()
2851161541500: global: PseudoInst::quiesceSkip()
2851162467000: global: PseudoInst::quiesceSkip()
2851162812500: global: PseudoInst::quiesceSkip()
2851163563000: global: PseudoInst::quiesceSkip()
2851163974000: global: PseudoInst::quiesceSkip()
2851165080000: global: PseudoInst::quiesceSkip()
2851167920000: global: PseudoInst::quiesceSkip()
2851170486500: global: PseudoInst::quiesceSkip()
2851174779000: global: PseudoInst::quiesceSkip()
2851178224500: global: PseudoInst::quiesceSkip()
2851180729000: global: PseudoInst::quiesceSkip()
2851185545500: global: PseudoInst::quiesceSkip()
2851187242000: global: PseudoInst::quiesceSkip()
2851188204000: global: PseudoInst::quiesceSkip()
2851190312500: global: PseudoInst::quiesceSkip()
2851193621500: global: PseudoInst::quiesceSkip()
2851194894500: global: PseudoInst::quiesceSkip()
2851194909500: global: PseudoInst::quiesceSkip()
2851195653000: global: PseudoInst::quiesceSkip()
2851196454500: global: PseudoInst::quiesceSkip()
2851197553500: global: PseudoInst::quiesceSkip()
2851204678500: global: PseudoInst::quiesce()
2851225720500: global: PseudoInst::quiesceSkip()
2851226904500: global: PseudoInst::quiesceSkip()
2851227709000: global: PseudoInst::quiesceSkip()
2851257718000: global: PseudoInst::quiesceSkip()
2851258895500: global: PseudoInst::quiesceSkip()
2851259645000: global: PseudoInst::quiesceSkip()
2851289669000: global: PseudoInst::quiesceSkip()
2851290853500: global: PseudoInst::quiesceSkip()
2851291603000: global: PseudoInst::quiesceSkip()
2851321746000: global: PseudoInst::quiesceSkip()
2851322932500: global: PseudoInst::quiesceSkip()
2851323673500: global: PseudoInst::quiesceSkip()
2851353719500: global: PseudoInst::quiesceSkip()
2851354905500: global: PseudoInst::quiesceSkip()
2851355655000: global: PseudoInst::quiesceSkip()
2851385722000: global: PseudoInst::quiesceSkip()
2851387130500: global: PseudoInst::quiesceSkip()
2851387880000: global: PseudoInst::quiesceSkip()
2851417928500: global: PseudoInst::quiesceSkip()
2851419114500: global: PseudoInst::quiesceSkip()
2851419864000: global: PseudoInst::quiesceSkip()
2851449887000: global: PseudoInst::quiesceSkip()
2851451066500: global: PseudoInst::quiesceSkip()
2851451816000: global: PseudoInst::quiesceSkip()
2851481893000: global: PseudoInst::quiesceSkip()
2851483078500: global: PseudoInst::quiesceSkip()
2851483253000: global: PseudoInst::quiesceSkip()
2851485084000: global: PseudoInst::quiesceSkip()
2851515139500: global: PseudoInst::quiesceSkip()
2851516326000: global: PseudoInst::quiesceSkip()
2851517076000: global: PseudoInst::quiesceSkip()
2851547162000: global: PseudoInst::quiesceSkip()
2851548361500: global: PseudoInst::quiesceSkip()
2851549111000: global: PseudoInst::quiesceSkip()
2851579160000: global: PseudoInst::quiesceSkip()
2851580339500: global: PseudoInst::quiesceSkip()
2851581089000: global: PseudoInst::quiesceSkip()
2851611179000: global: PseudoInst::quiesceSkip()
2851612364500: global: PseudoInst::quiesceSkip()
2851613114000: global: PseudoInst::quiesceSkip()
2851643155000: global: PseudoInst::quiesceSkip()
2851644552500: global: PseudoInst::quiesceSkip()
2851645302000: global: PseudoInst::quiesceSkip()
2851675380000: global: PseudoInst::quiesceSkip()
2851676565500: global: PseudoInst::quiesceSkip()
2851677315000: global: PseudoInst::quiesceSkip()
2851707373000: global: PseudoInst::quiesceSkip()
2851708571500: global: PseudoInst::quiesceSkip()
2851709328000: global: PseudoInst::quiesceSkip()
2851739370000: global: PseudoInst::quiesceSkip()
2851740547500: global: PseudoInst::quiesceSkip()
2851741297000: global: PseudoInst::quiesceSkip()
2851771334000: global: PseudoInst::quiesceSkip()
2851771553000: global: PseudoInst::quiesceSkip()
2851774350500: global: PseudoInst::quiesceSkip()
2851775100000: global: PseudoInst::quiesceSkip()
2851805168000: global: PseudoInst::quiesceSkip()
2851806345500: global: PseudoInst::quiesceSkip()
2851807095000: global: PseudoInst::quiesceSkip()
2851837230000: global: PseudoInst::quiesceSkip()
2851838649500: global: PseudoInst::quiesceSkip()
2851839390500: global: PseudoInst::quiesceSkip()
2851869409500: global: PseudoInst::quiesceSkip()
2851870588500: global: PseudoInst::quiesceSkip()
2851871338000: global: PseudoInst::quiesceSkip()
2851901407500: global: PseudoInst::quiesceSkip()
2851902586500: global: PseudoInst::quiesceSkip()
2851903336000: global: PseudoInst::quiesceSkip()
2851933392500: global: PseudoInst::quiesceSkip()
2851934571500: global: PseudoInst::quiesceSkip()
2851934744000: global: PseudoInst::quiesceSkip()
2851936508000: global: PseudoInst::quiesceSkip()
2851966555500: global: PseudoInst::quiesceSkip()
2851967734500: global: PseudoInst::quiesceSkip()
2851968484000: global: PseudoInst::quiesceSkip()
2851998582500: global: PseudoInst::quiesceSkip()
2851999761500: global: PseudoInst::quiesceSkip()
2852000511000: global: PseudoInst::quiesceSkip()
2852030545000: global: PseudoInst::quiesceSkip()
2852031724500: global: PseudoInst::quiesceSkip()
2852032474000: global: PseudoInst::quiesceSkip()
2852062572000: global: PseudoInst::quiesceSkip()
2852063757500: global: PseudoInst::quiesceSkip()
2852064507000: global: PseudoInst::quiesceSkip()
2852094532500: global: PseudoInst::quiesceSkip()
2852095940500: global: PseudoInst::quiesceSkip()
2852096690000: global: PseudoInst::quiesceSkip()
2852126738000: global: PseudoInst::quiesceSkip()
2852127923500: global: PseudoInst::quiesceSkip()
2852128709000: global: PseudoInst::quiesceSkip()
2852158726000: global: PseudoInst::quiesceSkip()
2852159905500: global: PseudoInst::quiesceSkip()
2852160655000: global: PseudoInst::quiesceSkip()
2852190704500: global: PseudoInst::quiesceSkip()
2852191909500: global: PseudoInst::quiesceSkip()
2852192666000: global: PseudoInst::quiesceSkip()
2852222693000: global: PseudoInst::quiesceSkip()
2852223870500: global: PseudoInst::quiesceSkip()
2852224620000: global: PseudoInst::quiesceSkip()
2852254696000: global: PseudoInst::quiesceSkip()
2852255880500: global: PseudoInst::quiesceSkip()
2852256630000: global: PseudoInst::quiesceSkip()
2852286697000: global: PseudoInst::quiesceSkip()
2852287874500: global: PseudoInst::quiesceSkip()
2852288624000: global: PseudoInst::quiesceSkip()
2852318664000: global: PseudoInst::quiesceSkip()
2852319848500: global: PseudoInst::quiesceSkip()
2852320598000: global: PseudoInst::quiesceSkip()
2852350722000: global: PseudoInst::quiesceSkip()
2852351998500: global: PseudoInst::quiesceSkip()
2852352739500: global: PseudoInst::quiesceSkip()
2852382753500: global: PseudoInst::quiesceSkip()
2852384167500: global: PseudoInst::quiesceSkip()
2852384340000: global: PseudoInst::quiesceSkip()
2852386127000: global: PseudoInst::quiesceSkip()
2852416199500: global: PseudoInst::quiesceSkip()
2852417377500: global: PseudoInst::quiesceSkip()
2852418127000: global: PseudoInst::quiesceSkip()
2852448192000: global: PseudoInst::quiesceSkip()
2852449376500: global: PseudoInst::quiesceSkip()
2852450126000: global: PseudoInst::quiesceSkip()
2852480152000: global: PseudoInst::quiesceSkip()
2852481329500: global: PseudoInst::quiesceSkip()
2852482079000: global: PseudoInst::quiesceSkip()
2852512121000: global: PseudoInst::quiesceSkip()
2852513305500: global: PseudoInst::quiesceSkip()
2852514055000: global: PseudoInst::quiesceSkip()
2852544139000: global: PseudoInst::quiesceSkip()
2852545316500: global: PseudoInst::quiesceSkip()
2852546066000: global: PseudoInst::quiesceSkip()
2852576136000: global: PseudoInst::quiesceSkip()
2852577320500: global: PseudoInst::quiesceSkip()
2852578070000: global: PseudoInst::quiesceSkip()
2852608124000: global: PseudoInst::quiesceSkip()
2852609565500: global: PseudoInst::quiesceSkip()
2852610315000: global: PseudoInst::quiesceSkip()
2852640371500: global: PseudoInst::quiesceSkip()
2852641555500: global: PseudoInst::quiesceSkip()
2852642305000: global: PseudoInst::quiesceSkip()
2852672366500: global: PseudoInst::quiesceSkip()
2852673544500: global: PseudoInst::quiesceSkip()
2852674294000: global: PseudoInst::quiesceSkip()
2852704365500: global: PseudoInst::quiesceSkip()
2852705570500: global: PseudoInst::quiesceSkip()
2852706327000: global: PseudoInst::quiesceSkip()
2852736351000: global: PseudoInst::quiesceSkip()
2852737528500: global: PseudoInst::quiesceSkip()
2852738278000: global: PseudoInst::quiesceSkip()
2852768311000: global: PseudoInst::quiesceSkip()
2852768524000: global: PseudoInst::quiesceSkip()
2852771214500: global: PseudoInst::quiesceSkip()
2852771964000: global: PseudoInst::quiesceSkip()
2852802007000: global: PseudoInst::quiesceSkip()
2852803184500: global: PseudoInst::quiesceSkip()
2852803934000: global: PseudoInst::quiesceSkip()
2852833972500: global: PseudoInst::quiesceSkip()
2852835380500: global: PseudoInst::quiesceSkip()
2852835553000: global: PseudoInst::quiesceSkip()
2852837352000: global: PseudoInst::quiesceSkip()
2852867443000: global: PseudoInst::quiesceSkip()
2852868629500: global: PseudoInst::quiesceSkip()
2852869370500: global: PseudoInst::quiesceSkip()
2852899420500: global: PseudoInst::quiesceSkip()
2852900599500: global: PseudoInst::quiesceSkip()
2852901349000: global: PseudoInst::quiesceSkip()
2852931393000: global: PseudoInst::quiesceSkip()
2852932572500: global: PseudoInst::quiesceSkip()
2852933322000: global: PseudoInst::quiesceSkip()
2852963342000: global: PseudoInst::quiesceSkip()
2852964521500: global: PseudoInst::quiesceSkip()
2852965271000: global: PseudoInst::quiesceSkip()
2852995328500: global: PseudoInst::quiesceSkip()
2852996507500: global: PseudoInst::quiesceSkip()
2852997257000: global: PseudoInst::quiesceSkip()
2853027359000: global: PseudoInst::quiesceSkip()
2853028538500: global: PseudoInst::quiesceSkip()
2853029324000: global: PseudoInst::quiesceSkip()
2853059343500: global: PseudoInst::quiesceSkip()
2853060522500: global: PseudoInst::quiesceSkip()
2853061272000: global: PseudoInst::quiesceSkip()
2853091292000: global: PseudoInst::quiesceSkip()
2853092706500: global: PseudoInst::quiesceSkip()
2853093456000: global: PseudoInst::quiesceSkip()
2853123523000: global: PseudoInst::quiesceSkip()
2853124702500: global: PseudoInst::quiesceSkip()
2853125452000: global: PseudoInst::quiesceSkip()
2853155501500: global: PseudoInst::quiesceSkip()
2853156687500: global: PseudoInst::quiesceSkip()
2853157437000: global: PseudoInst::quiesceSkip()
2853187456000: global: PseudoInst::quiesceSkip()
2853188635500: global: PseudoInst::quiesceSkip()
2853189385000: global: PseudoInst::quiesceSkip()
2853219423000: global: PseudoInst::quiesceSkip()
2853220628500: global: PseudoInst::quiesceSkip()
2853221385000: global: PseudoInst::quiesceSkip()
2853251417500: global: PseudoInst::quiesceSkip()
2853252595500: global: PseudoInst::quiesceSkip()
2853253345000: global: PseudoInst::quiesceSkip()
2853283390500: global: PseudoInst::quiesceSkip()
2853284574500: global: PseudoInst::quiesceSkip()
2853284739000: global: PseudoInst::quiesceSkip()
2853286526000: global: PseudoInst::quiesceSkip()
2853316559500: global: PseudoInst::quiesceSkip()
2853317966500: global: PseudoInst::quiesceSkip()
2853318716000: global: PseudoInst::quiesceSkip()
2853348765000: global: PseudoInst::quiesceSkip()
2853349949500: global: PseudoInst::quiesceSkip()
2853350699000: global: PseudoInst::quiesceSkip()
2853380855000: global: PseudoInst::quiesceSkip()
2853382041500: global: PseudoInst::quiesceSkip()
2853382782500: global: PseudoInst::quiesceSkip()
2853412826500: global: PseudoInst::quiesceSkip()
2853414012500: global: PseudoInst::quiesceSkip()
2853414762000: global: PseudoInst::quiesceSkip()
2853444797000: global: PseudoInst::quiesceSkip()
2853445976500: global: PseudoInst::quiesceSkip()
2853446726000: global: PseudoInst::quiesceSkip()
2853476734500: global: PseudoInst::quiesceSkip()
2853477920500: global: PseudoInst::quiesceSkip()
2853478670000: global: PseudoInst::quiesceSkip()
2853508725000: global: PseudoInst::quiesceSkip()
2853509904500: global: PseudoInst::quiesceSkip()
2853510654000: global: PseudoInst::quiesceSkip()
2853540715000: global: PseudoInst::quiesceSkip()
2853541900500: global: PseudoInst::quiesceSkip()
2853542650000: global: PseudoInst::quiesceSkip()
2853572674500: global: PseudoInst::quiesceSkip()
2853573853500: global: PseudoInst::quiesceSkip()
2853574603000: global: PseudoInst::quiesceSkip()
2853604648000: global: PseudoInst::quiesceSkip()
2853606070500: global: PseudoInst::quiesceSkip()
2853606820000: global: PseudoInst::quiesceSkip()
2853636848500: global: PseudoInst::quiesceSkip()
2853638027500: global: PseudoInst::quiesceSkip()
2853638777000: global: PseudoInst::quiesceSkip()
2853668864000: global: PseudoInst::quiesceSkip()
2853670049500: global: PseudoInst::quiesceSkip()
2853670799000: global: PseudoInst::quiesceSkip()
2853700808000: global: PseudoInst::quiesceSkip()
2853701987500: global: PseudoInst::quiesceSkip()
2853702737000: global: PseudoInst::quiesceSkip()
2853732799500: global: PseudoInst::quiesceSkip()
2853733998500: global: PseudoInst::quiesceSkip()
2853734169500: global: PseudoInst::quiesceSkip()
2853735942000: global: PseudoInst::quiesceSkip()
2853765976000: global: PseudoInst::quiesceSkip()
2853766189000: global: PseudoInst::quiesceSkip()
2853768957500: global: PseudoInst::quiesceSkip()
2853769707000: global: PseudoInst::quiesceSkip()
2853799775500: global: PseudoInst::quiesceSkip()
2853801187500: global: PseudoInst::quiesceSkip()
2853801937000: global: PseudoInst::quiesceSkip()
2853831988000: global: PseudoInst::quiesceSkip()
2853833165500: global: PseudoInst::quiesceSkip()
2853833915000: global: PseudoInst::quiesceSkip()
2853863981500: global: PseudoInst::quiesceSkip()
2853865167500: global: PseudoInst::quiesceSkip()
2853865917000: global: PseudoInst::quiesceSkip()
2853895966500: global: PseudoInst::quiesceSkip()
2853897152500: global: PseudoInst::quiesceSkip()
2853897893500: global: PseudoInst::quiesceSkip()
2853927935500: global: PseudoInst::quiesceSkip()
2853929114500: global: PseudoInst::quiesceSkip()
2853929900000: global: PseudoInst::quiesceSkip()
2853959957500: global: PseudoInst::quiesceSkip()
2853961136500: global: PseudoInst::quiesceSkip()
2853961886000: global: PseudoInst::quiesceSkip()
2853991929000: global: PseudoInst::quiesceSkip()
2853993114500: global: PseudoInst::quiesceSkip()
2853993864000: global: PseudoInst::quiesceSkip()
2854023957500: global: PseudoInst::quiesceSkip()
2854025136500: global: PseudoInst::quiesceSkip()
2854025886000: global: PseudoInst::quiesceSkip()
2854055928500: global: PseudoInst::quiesceSkip()
2854057107500: global: PseudoInst::quiesceSkip()
2854057857000: global: PseudoInst::quiesceSkip()
2854087926000: global: PseudoInst::quiesceSkip()
2854089369500: global: PseudoInst::quiesceSkip()
2854090119000: global: PseudoInst::quiesceSkip()
2854120197000: global: PseudoInst::quiesceSkip()
2854121382500: global: PseudoInst::quiesceSkip()
2854122132000: global: PseudoInst::quiesceSkip()
2854152174500: global: PseudoInst::quiesceSkip()
2854153353500: global: PseudoInst::quiesceSkip()
2854154103000: global: PseudoInst::quiesceSkip()
2854184162000: global: PseudoInst::quiesceSkip()
2854185347500: global: PseudoInst::quiesceSkip()
2854185520000: global: PseudoInst::quiesceSkip()
2854187326000: global: PseudoInst::quiesceSkip()
2854217389500: global: PseudoInst::quiesceSkip()
2854218568500: global: PseudoInst::quiesceSkip()
2854219318000: global: PseudoInst::quiesceSkip()
2854249376000: global: PseudoInst::quiesceSkip()
2854250581500: global: PseudoInst::quiesceSkip()
2854251338000: global: PseudoInst::quiesceSkip()
2854281365000: global: PseudoInst::quiesceSkip()
2854282542500: global: PseudoInst::quiesceSkip()
2854283292000: global: PseudoInst::quiesceSkip()
2854313294000: global: PseudoInst::quiesceSkip()
2854314729500: global: PseudoInst::quiesceSkip()
2854315479000: global: PseudoInst::quiesceSkip()
2854345481500: global: PseudoInst::quiesceSkip()
2854346664500: global: PseudoInst::quiesceSkip()
2854347414000: global: PseudoInst::quiesceSkip()
2854347741500: global: PseudoInst::quiesceSkip()
2854348466000: global: PseudoInst::quiesceSkip()
2854349347500: global: PseudoInst::quiesceSkip()
2854349684000: global: PseudoInst::quiesceSkip()
2854350131000: global: PseudoInst::quiesceSkip()
2854350970000: global: PseudoInst::quiesceSkip()
2854351255000: global: PseudoInst::quiesceSkip()
2854351676500: global: PseudoInst::quiesceSkip()
2854352512000: global: PseudoInst::quiesceSkip()
2854352977000: global: PseudoInst::quiesceSkip()
2854353523500: global: PseudoInst::quiesceSkip()
2854354322000: global: PseudoInst::quiesceSkip()
2854354809000: global: PseudoInst::quiesceSkip()
2854356246500: global: PseudoInst::quiesceSkip()
2854356996500: global: PseudoInst::quiesceSkip()
2854357218500: global: PseudoInst::quiesceSkip()
2854358454500: global: PseudoInst::quiesceSkip()
2854359192000: global: PseudoInst::quiesceSkip()
2854359395000: global: PseudoInst::quiesceSkip()
2854359860500: global: PseudoInst::quiesceSkip()
2854360672000: global: PseudoInst::quiesceSkip()
2854361351000: global: PseudoInst::quiesceSkip()
2854361761500: global: PseudoInst::quiesceSkip()
2854362565000: global: PseudoInst::quiesceSkip()
2854363279500: global: PseudoInst::quiesceSkip()
2854365588500: global: PseudoInst::quiesceSkip()
2854370535000: global: PseudoInst::quiesceSkip()
2854372037500: global: PseudoInst::quiesceSkip()
2854375398000: global: PseudoInst::quiesceSkip()
2854378095000: global: PseudoInst::quiesceSkip()
2854379883500: global: PseudoInst::quiesceSkip()
2854381014500: global: PseudoInst::quiesceSkip()
2854383542000: global: PseudoInst::quiesceNs(10000)
2854394353500: global: PseudoInst::quiesceNs(1000)
2854395360000: global: PseudoInst::quiesceNs(10000)
2854406528000: global: PseudoInst::quiesceNs(10000)
2854417726500: global: PseudoInst::quiesceNs(1000)
2854419178000: global: PseudoInst::quiesceSkip()
2854419403000: global: PseudoInst::quiesceSkip()
2854419823000: global: PseudoInst::quiesceSkip()
2854420273500: global: PseudoInst::quiesceSkip()
2854420818000: global: PseudoInst::quiesceSkip()
2854423187500: global: PseudoInst::quiesceSkip()
2854423712000: global: PseudoInst::quiesceSkip()
2854426159000: global: PseudoInst::quiesceSkip()
2854427002000: global: PseudoInst::quiesceSkip()
2854427069000: global: PseudoInst::quiesceSkip()
2854428446500: global: PseudoInst::quiesceSkip()
2854428556500: global: PseudoInst::quiesceSkip()
2854428595000: global: PseudoInst::quiesceSkip()
2854431321000: global: PseudoInst::quiesceSkip()
2854432037000: global: PseudoInst::quiesceSkip()
2854433728500: global: PseudoInst::quiesceSkip()
2854433811000: global: PseudoInst::quiesceSkip()
2854434232500: global: PseudoInst::quiesceSkip()
2854434362000: global: PseudoInst::quiesceSkip()
2854434554500: global: PseudoInst::quiesceSkip()
2854435752500: global: PseudoInst::quiesceSkip()
2854436813500: global: PseudoInst::quiesceSkip()
2854437264000: global: PseudoInst::quiesceSkip()
2854438164000: global: PseudoInst::quiesceSkip()
2854438554000: global: PseudoInst::quiesceSkip()
2854438822500: global: PseudoInst::quiesceSkip()
2854439614000: global: PseudoInst::quiesceSkip()
2854440721000: global: PseudoInst::quiesceSkip()
2854441046500: global: PseudoInst::quiesceSkip()
2854441838000: global: PseudoInst::quiesceSkip()
2854442950500: global: PseudoInst::quiesceSkip()
2854443120000: global: PseudoInst::quiesceSkip()
2854443446000: global: PseudoInst::quiesceSkip()
2854443615000: global: PseudoInst::quiesceSkip()
2854443877500: global: PseudoInst::quiesceSkip()
2854444046000: global: PseudoInst::quiesceSkip()
2854444597500: global: PseudoInst::quiesceSkip()
2854444719000: global: PseudoInst::quiesceSkip()
2854447157500: global: PseudoInst::quiesceSkip()
2854447231000: global: PseudoInst::quiesceSkip()
2854447279000: global: PseudoInst::quiesceSkip()
2854449919500: global: PseudoInst::quiesceSkip()
2854449965500: global: PseudoInst::quiesceSkip()
2854451327000: global: PseudoInst::quiesceSkip()
2854451566500: global: PseudoInst::quiesceSkip()
2854451648500: global: PseudoInst::quiesceSkip()
2854452015000: global: PseudoInst::quiesceSkip()
2854452268000: global: PseudoInst::quiesceSkip()
2854452388000: global: PseudoInst::quiesceSkip()
2854452552500: global: PseudoInst::quiesceSkip()
2854453013000: global: PseudoInst::quiesceSkip()
2854453095000: global: PseudoInst::quiesceSkip()
2854454070500: global: PseudoInst::quiesceSkip()
2854454116500: global: PseudoInst::quiesceSkip()
2854455467500: global: PseudoInst::quiesceSkip()
2854455689000: global: PseudoInst::quiesceSkip()
2854455771000: global: PseudoInst::quiesceSkip()
2854456106000: global: PseudoInst::quiesceSkip()
2854456348500: global: PseudoInst::quiesceSkip()
2854456453000: global: PseudoInst::quiesceSkip()
2854456670000: global: PseudoInst::quiesceSkip()
2854456837500: global: PseudoInst::quiesceSkip()
2854461827500: global: PseudoInst::quiesceSkip()
2854463453500: global: PseudoInst::quiesceSkip()
2854464369500: global: PseudoInst::quiesceSkip()
2854464823500: global: PseudoInst::quiesceSkip()
2854466013500: global: PseudoInst::quiesceSkip()
2854466738000: global: PseudoInst::quiesceSkip()
2854467723000: global: PseudoInst::quiesceSkip()
2854468924500: global: PseudoInst::quiesceSkip()
2854469661000: global: PseudoInst::quiesceSkip()
2854471000500: global: PseudoInst::quiesceSkip()
2854471540500: global: PseudoInst::quiesceSkip()
2854472343500: global: PseudoInst::quiesceSkip()
2854472696500: global: PseudoInst::quiesceSkip()
2854473135000: global: PseudoInst::quiesceSkip()
2854473939000: global: PseudoInst::quiesceSkip()
2854474193000: global: PseudoInst::start_profiling()
2854474303500: global: PseudoInst::quiesceSkip()
2854474628500: global: PseudoInst::quiesceSkip()
2854475441000: global: PseudoInst::quiesceSkip()
2854475733000: global: PseudoInst::quiesceSkip()
2854476073500: global: PseudoInst::quiesceSkip()
2854476810500: global: PseudoInst::quiesceSkip()
2854477943000: global: PseudoInst::quiesceSkip()
2854478557000: global: PseudoInst::quiesceSkip()
2854479013500: global: PseudoInst::quiesceSkip()
2854479268000: global: PseudoInst::quiesceSkip()
2854480550000: global: PseudoInst::quiesceSkip()
2854481332000: global: PseudoInst::quiesceSkip()
2854481984000: global: PseudoInst::quiesceSkip()
2854483221500: global: PseudoInst::quiesceSkip()
2854483966000: global: PseudoInst::quiesceSkip()
2854484622000: global: PseudoInst::quiesceSkip()
2854484987500: global: PseudoInst::quiesceSkip()
2854485829500: global: PseudoInst::quiesceSkip()
2854486419000: global: PseudoInst::quiesceSkip()
2854488502000: global: PseudoInst::quiesceSkip()
2854489038000: global: PseudoInst::quiesceSkip()
2854490333500: global: PseudoInst::quiesceSkip()
2854491114000: global: PseudoInst::quiesceSkip()
2854492140000: global: PseudoInst::quiesceSkip()
2854494493500: global: PseudoInst::quiesceSkip()
2854494758000: global: PseudoInst::quiesceSkip()
2854495438500: global: PseudoInst::quiesceSkip()
2854496192500: global: PseudoInst::quiesceSkip()
2854497638500: global: PseudoInst::quiesceSkip()
2854498045500: global: PseudoInst::quiesceSkip()
2854498128500: global: PseudoInst::quiesceSkip()
2854498599000: global: PseudoInst::quiesceSkip()
2854499001000: global: PseudoInst::quiesceSkip()
2854500267500: global: PseudoInst::quiesceSkip()
2854502042000: global: PseudoInst::quiesceSkip()
2854502272000: global: PseudoInst::quiesceSkip()
2854502557500: global: PseudoInst::quiesceSkip()
2854503950500: global: PseudoInst::quiesceSkip()
2854504243500: global: PseudoInst::quiesceSkip()
2854505213000: global: PseudoInst::quiesceSkip()
2854506176000: global: PseudoInst::quiesceSkip()
2854506550500: global: PseudoInst::quiesceSkip()
2854506928000: global: PseudoInst::quiesceSkip()
2854507481000: global: PseudoInst::quiesceSkip()
2854507805000: global: PseudoInst::quiesceSkip()
2854508228000: global: PseudoInst::quiesceSkip()
2854508288000: global: PseudoInst::quiesceSkip()
2854508489000: global: PseudoInst::quiesceSkip()
2854509218000: global: PseudoInst::quiesceSkip()
2854510264000: global: PseudoInst::quiesceSkip()
2854510400500: global: PseudoInst::quiesceSkip()
2854510458000: global: PseudoInst::quiesceSkip()
2854510527500: global: PseudoInst::quiesceSkip()
2854510598500: global: PseudoInst::quiesceSkip()
2854510618500: global: PseudoInst::quiesce()
2854510905000: global: PseudoInst::quiesce()
2854510943500: global: PseudoInst::quiesce()
2854511526000: global: PseudoInst::quiesceSkip()
2854511549000: global: PseudoInst::quiesceSkip()
2854511641500: global: PseudoInst::quiesceSkip()
2854513089500: global: PseudoInst::quiesceSkip()
2854513277000: global: PseudoInst::quiesceSkip()
2854513454500: global: PseudoInst::quiesceSkip()
2854514747000: global: PseudoInst::quiesceSkip()
2854514833000: global: PseudoInst::quiesceSkip()
2854516113000: global: PseudoInst::quiesceSkip()
2854516416500: global: PseudoInst::quiesceSkip()
2854516557500: global: PseudoInst::quiesceSkip()
2854517089000: global: PseudoInst::quiesceSkip()
2854517832000: global: PseudoInst::quiesce()
2854518719000: global: PseudoInst::quiesceSkip()
2854518792000: global: PseudoInst::quiesceSkip()
2854519937000: global: PseudoInst::quiesceSkip()
2854520014000: global: PseudoInst::quiesceSkip()
2854520091000: global: PseudoInst::quiesceSkip()
2854520215500: global: PseudoInst::quiesceSkip()
2854521362500: global: PseudoInst::quiesceSkip()
2854522185500: global: PseudoInst::quiesceSkip()
2854522893000: global: PseudoInst::quiesceSkip()
2854523520500: global: PseudoInst::quiesceSkip()
2854523906500: global: PseudoInst::quiesceSkip()
2854524839000: global: PseudoInst::quiesceSkip()
2854525902000: global: PseudoInst::quiesceSkip()
2854526243500: global: PseudoInst::quiesceSkip()
2854526584000: global: PseudoInst::quiesceSkip()
2854528292500: global: PseudoInst::quiesceSkip()
2854528355000: global: PseudoInst::quiesceSkip()
2854529457000: global: PseudoInst::quiesceSkip()
2854529470500: global: PseudoInst::quiesceSkip()
2854529596000: global: PseudoInst::quiesceSkip()
2854530341500: global: PseudoInst::quiesceSkip()
2854530897000: global: PseudoInst::quiesce()
2854532244000: global: PseudoInst::quiesceSkip()
2854533047000: global: PseudoInst::quiesceSkip()
2854533117000: global: PseudoInst::quiesceSkip()
2854534192000: global: PseudoInst::quiesceSkip()
2854534486000: global: PseudoInst::quiesceSkip()
2854535491000: global: PseudoInst::quiesceSkip()
2854535919000: global: PseudoInst::quiesceSkip()
2854536086000: global: PseudoInst::quiesceSkip()
2854536634000: global: PseudoInst::quiesceSkip()
2854536860000: global: PseudoInst::quiesceSkip()
2854537516000: global: PseudoInst::quiesceSkip()
2854537660500: global: PseudoInst::quiesceSkip()
2854537812500: global: PseudoInst::quiesceSkip()
2854537862000: global: PseudoInst::quiesceSkip()
2854537893500: global: PseudoInst::quiesceSkip()
2854538158500: global: PseudoInst::quiesceSkip()
2854538353000: global: PseudoInst::quiesceSkip()
2854538878000: global: PseudoInst::quiesceSkip()
2854538982000: global: PseudoInst::quiesceSkip()
2854539186500: global: PseudoInst::quiesceSkip()
2854540262500: global: PseudoInst::quiesceSkip()
2854540397000: global: PseudoInst::quiesceSkip()
2854540481500: global: PseudoInst::quiesceSkip()
2854541596500: global: PseudoInst::quiesceSkip()
2854542283000: global: PseudoInst::quiesceSkip()
2854542365000: global: PseudoInst::quiesceSkip()
2854542693500: global: PseudoInst::quiesceSkip()
2854542792000: global: PseudoInst::quiesceSkip()
2854543001000: global: PseudoInst::quiesceSkip()
2854543014500: global: PseudoInst::quiesceSkip()
2854543391000: global: PseudoInst::quiesceSkip()
2854543598000: global: PseudoInst::quiesceSkip()
2854543676500: global: PseudoInst::quiesceSkip()
2854543996500: global: PseudoInst::quiesceSkip()
2854544287000: global: PseudoInst::quiesceSkip()
2854544564500: global: PseudoInst::quiesceSkip()
2854544635500: global: PseudoInst::quiesceSkip()
2854544828500: global: PseudoInst::quiesce()
2854545659000: global: PseudoInst::quiesceSkip()
2854546442500: global: PseudoInst::quiesceSkip()
2854546616500: global: PseudoInst::end_profiling()
2854546634500: global: PseudoInst::thread_inactive()
2854547685000: global: PseudoInst::quiesceSkip()
2854548367000: global: PseudoInst::quiesceSkip()
2854548431500: global: PseudoInst::quiesceSkip()
2854549440500: global: PseudoInst::quiesceSkip()
2854549456500: global: PseudoInst::quiesceSkip()
2854550865500: global: PseudoInst::quiesceSkip()
2854551461500: global: PseudoInst::quiesceSkip()
2854551887000: global: PseudoInst::quiesceSkip()
2854551906000: global: PseudoInst::quiesceSkip()
2854552086500: global: PseudoInst::quiesceSkip()
2854552920500: global: PseudoInst::quiesceSkip()
2854553184500: global: PseudoInst::end_profiling()
2854553211500: global: PseudoInst::thread_inactive()
2854554964000: global: PseudoInst::quiesceSkip()
2854555829500: global: PseudoInst::quiesceSkip()
2854556867500: global: PseudoInst::quiesceSkip()
2854557971000: global: PseudoInst::quiesceSkip()
2854558307500: global: PseudoInst::quiesceSkip()
2854559598000: global: PseudoInst::quiesceSkip()
2854560379000: global: PseudoInst::quiesceSkip()
2854560913000: global: PseudoInst::quiesceSkip()
2854562162500: global: PseudoInst::quiesceSkip()
2854562315000: global: PseudoInst::quiesceSkip()
2854562877000: global: PseudoInst::quiesceSkip()
2854563097000: global: PseudoInst::quiesceSkip()
2854563822000: global: PseudoInst::quiesceSkip()
2854564030000: global: PseudoInst::quiesceSkip()
2854564061500: global: PseudoInst::quiesceSkip()
2854564294500: global: PseudoInst::quiesceSkip()
2854564475000: global: PseudoInst::quiesceSkip()
2854565106000: global: PseudoInst::quiesceSkip()
2854566388500: global: PseudoInst::quiesceSkip()
2854566637000: global: PseudoInst::quiesceSkip()
2854566892000: global: PseudoInst::quiesceSkip()
2854567488000: global: PseudoInst::quiesceSkip()
2854567737000: global: PseudoInst::quiesceSkip()
2854568724500: global: PseudoInst::quiesceSkip()
2854569823000: global: PseudoInst::quiesceSkip()
2854570067000: global: PseudoInst::quiesceSkip()
2854570343500: global: PseudoInst::end_profiling()
2854570370500: global: PseudoInst::thread_inactive()
2854571240500: global: PseudoInst::quiesceSkip()
2854572086000: global: PseudoInst::quiesceSkip()
2854572969500: global: PseudoInst::quiesceSkip()
2854574022500: global: PseudoInst::quiesceSkip()
2854574329000: global: PseudoInst::quiesceSkip()
2854575664000: global: PseudoInst::quiesceSkip()
2854576447000: global: PseudoInst::quiesceSkip()
2854576868000: global: PseudoInst::quiesceSkip()
2854578048500: global: PseudoInst::quiesceSkip()
2854578175500: global: PseudoInst::quiesceSkip()
2854578731500: global: PseudoInst::quiesceSkip()
2854578943000: global: PseudoInst::quiesceSkip()
2854579821000: global: PseudoInst::quiesceSkip()
2854580012000: global: PseudoInst::quiesceSkip()
2854580044000: global: PseudoInst::quiesceSkip()
2854580263000: global: PseudoInst::quiesceSkip()
2854580433000: global: PseudoInst::quiesceSkip()
2854580909500: global: PseudoInst::quiesceSkip()
2854582758500: global: PseudoInst::quiesceSkip()
2854583199000: global: PseudoInst::quiesceSkip()
2854584101500: global: PseudoInst::quiesceSkip()
2854584601500: global: PseudoInst::quiesceSkip()
2854584986000: global: PseudoInst::quiesceSkip()
2854586467000: global: PseudoInst::quiesceSkip()
2854587197500: global: PseudoInst::quiesceSkip()
2854587584500: global: PseudoInst::quiesceSkip()
2854588693000: global: PseudoInst::quiesceSkip()
2854589005500: global: PseudoInst::quiesceSkip()
2854589291000: global: PseudoInst::quiesceSkip()
2854590255000: global: PseudoInst::quiesceSkip()
2854590511500: global: PseudoInst::quiesceSkip()
2854590797000: global: PseudoInst::quiesceSkip()
2854592303500: global: PseudoInst::quiesceSkip()
2854592616500: global: PseudoInst::quiesceSkip()
2854592902000: global: PseudoInst::quiesceSkip()
2854601587500: global: PseudoInst::quiesceSkip()
2854601927500: global: PseudoInst::quiesceSkip()
2854602178500: global: PseudoInst::quiesceSkip()
2854604752000: global: PseudoInst::quiesceSkip()
2854605016500: global: PseudoInst::quiesceSkip()
2854605314000: global: PseudoInst::quiesceSkip()
2854632466000: global: PseudoInst::quiesceSkip()
2854633928500: global: PseudoInst::quiesceSkip()
2854634518500: global: PseudoInst::quiesceSkip()
2854635235000: global: PseudoInst::quiesceSkip()
2854635684000: global: PseudoInst::quiesceSkip()
2854637691500: global: PseudoInst::quiesceSkip()
2854638548000: global: PseudoInst::quiesceSkip()
2854638890500: global: PseudoInst::quiesceSkip()
2854639789500: global: PseudoInst::quiesceSkip()
2854640126000: global: PseudoInst::quiesceSkip()
2854640355000: global: PseudoInst::quiesceSkip()
2854646204500: global: PseudoInst::quiesceSkip()
2854647332000: global: PseudoInst::quiesceSkip()
2854647845500: global: PseudoInst::quiesceSkip()
2854648521000: global: PseudoInst::quiesceSkip()
2854648838000: global: PseudoInst::quiesceSkip()
2854652827500: global: PseudoInst::quiesceSkip()
2854653065000: global: PseudoInst::quiesceSkip()
2854653222500: global: PseudoInst::quiesceSkip()
2854654045000: global: PseudoInst::quiesceSkip()
2854655260500: global: PseudoInst::quiesceSkip()
2854655393000: global: PseudoInst::quiesceSkip()
2854655889500: global: PseudoInst::quiesceSkip()
2854656183000: global: PseudoInst::quiesceSkip()
2854661516500: global: PseudoInst::quiesceSkip()
2854662895500: global: PseudoInst::quiesceSkip()
2854663295000: global: PseudoInst::quiesceSkip()
2854663887500: global: PseudoInst::quiesceSkip()
2854664103500: global: PseudoInst::quiesceSkip()
2854664758500: global: PseudoInst::quiesceSkip()
2854665301000: global: PseudoInst::quiesceSkip()
2854665929500: global: PseudoInst::quiesceSkip()
2854666962000: global: PseudoInst::quiesceSkip()
2854668601500: global: PseudoInst::quiesceSkip()
2854669776500: global: PseudoInst::quiesceSkip()
2854670085000: global: PseudoInst::quiesceSkip()
2854670868000: global: PseudoInst::quiesceSkip()
2854671286500: global: PseudoInst::quiesceSkip()
2854671707500: global: PseudoInst::quiesceSkip()
2854672304500: global: PseudoInst::quiesceSkip()
2854673702500: global: PseudoInst::quiesceSkip()
2854673913000: global: PseudoInst::quiesceSkip()
2854674617500: global: PseudoInst::quiesceSkip()
2854676215500: global: PseudoInst::quiesceSkip()
2854676795000: global: PseudoInst::quiesceSkip()
2854677009500: global: PseudoInst::quiesceSkip()
2854678227000: global: PseudoInst::quiesceSkip()
2854678467500: global: PseudoInst::quiesceSkip()
2854678684000: global: PseudoInst::quiesceSkip()
2854679272000: global: PseudoInst::quiesceSkip()
2854679625000: global: PseudoInst::quiesceSkip()
2854679996000: global: PseudoInst::quiesceSkip()
2854680743500: global: PseudoInst::quiesceSkip()
2854680977500: global: PseudoInst::quiesceSkip()
2854681239500: global: PseudoInst::quiesceSkip()
2854681516000: global: PseudoInst::quiesceSkip()
2854681819000: global: PseudoInst::quiesceSkip()
2854682259000: global: PseudoInst::quiesceSkip()
2854682705500: global: PseudoInst::quiesceSkip()
2854682982000: global: PseudoInst::quiesceSkip()
2854683841000: global: PseudoInst::quiesceSkip()
2854684575500: global: PseudoInst::quiesceSkip()
2854684879000: global: PseudoInst::quiesceSkip()
2854685422500: global: PseudoInst::quiesceSkip()
2854685890500: global: PseudoInst::quiesceSkip()
2854686176000: global: PseudoInst::quiesceSkip()
2854687760000: global: PseudoInst::quiesceSkip()
2854688256500: global: PseudoInst::quiesceSkip()
2854688415500: global: PseudoInst::quiesceSkip()
2854688579500: global: PseudoInst::quiesceSkip()
2854688704000: global: PseudoInst::quiesceSkip()
2854689224500: global: PseudoInst::quiesceSkip()
2854689671500: global: PseudoInst::quiesceSkip()
2854689948000: global: PseudoInst::quiesceSkip()
2854690329000: global: PseudoInst::end_profiling()
2854690343500: global: PseudoInst::thread_inactive()
2854691079500: global: PseudoInst::quiesceSkip()
2854691104000: global: PseudoInst::quiesceSkip()
2854691248500: global: PseudoInst::quiesceSkip()
2854691436500: global: PseudoInst::quiesceSkip()
2854691481000: global: PseudoInst::quiesceSkip()
2854691750000: global: PseudoInst::quiesceSkip()
2854691809000: global: PseudoInst::quiesceSkip()
2854692797000: global: PseudoInst::quiesceSkip()
2854693208000: global: PseudoInst::quiesceSkip()
2854693748500: global: PseudoInst::quiesceSkip()
2854694062000: global: PseudoInst::quiesceSkip()
2854694087000: global: PseudoInst::quiesceSkip()
2854694287000: global: PseudoInst::quiesceSkip()
2854694674000: global: PseudoInst::quiesceSkip()
2854695273500: global: PseudoInst::thread_active()
2854695358000: global: PseudoInst::thread_active()
2854695359000: global: PseudoInst::quiesceSkip()
2854695490000: global: PseudoInst::quiesceSkip()
2854695714000: global: PseudoInst::quiesceSkip()
2854696330000: global: PseudoInst::quiesceSkip()
2854696500000: global: PseudoInst::quiesceSkip()
2854697435500: global: PseudoInst::quiesceSkip()
2854697453500: global: PseudoInst::quiesceSkip()
2854697567500: global: PseudoInst::thread_active()
2854697865500: global: PseudoInst::quiesceSkip()
2854698263500: global: PseudoInst::quiesceSkip()
2854698356000: global: PseudoInst::quiesceSkip()
2854699970500: global: PseudoInst::quiesceSkip()
2854700487500: global: PseudoInst::quiesceSkip()
2854700730000: global: PseudoInst::quiesceSkip()
2854701021000: global: PseudoInst::quiesceSkip()
2854701371500: global: PseudoInst::quiesceSkip()
2854701607500: global: PseudoInst::quiesceSkip()
2854702306000: global: PseudoInst::quiesceSkip()
2854702649500: global: PseudoInst::quiesceSkip()
2854702963000: global: PseudoInst::quiesceSkip()
2854703437000: global: PseudoInst::quiesceSkip()
2854703903500: global: PseudoInst::quiesceSkip()
2854704139500: global: PseudoInst::quiesceSkip()
2854704569000: global: PseudoInst::quiesceSkip()
2854704825500: global: PseudoInst::quiesceSkip()
2854705122000: global: PseudoInst::quiesceSkip()
2854735093000: global: PseudoInst::quiesceSkip()
2854735482500: global: PseudoInst::quiesceSkip()
2854735809000: global: PseudoInst::quiesceSkip()
2854736434500: global: PseudoInst::quiesceSkip()
2854736706000: global: PseudoInst::quiesceSkip()
2854736992000: global: PseudoInst::quiesceSkip()
2854737529000: global: PseudoInst::quiesceSkip()
2854737854500: global: PseudoInst::quiesceSkip()
2854738139000: global: PseudoInst::quiesceSkip()
2854739217500: global: PseudoInst::quiesceSkip()
2854739474000: global: PseudoInst::quiesceSkip()
2854739759000: global: PseudoInst::quiesceSkip()
2854740047000: global: PseudoInst::quiesceSkip()
2854740366500: global: PseudoInst::quiesceSkip()
2854740652000: global: PseudoInst::quiesceSkip()
2854741019500: global: PseudoInst::quiesceSkip()
2854741204500: global: PseudoInst::quiesceSkip()
2854741402500: global: PseudoInst::quiesceSkip()
2854742078000: global: PseudoInst::quiesceSkip()
2854742532000: global: PseudoInst::quiesceSkip()
2854743104000: global: PseudoInst::quiesceSkip()
2854743654000: global: PseudoInst::quiesceSkip()
2854744940000: global: PseudoInst::quiesceSkip()
2854745234500: global: PseudoInst::quiesceSkip()
2854745562500: global: PseudoInst::quiesceSkip()
2854745976000: global: PseudoInst::quiesceSkip()
2854746285000: global: PseudoInst::quiesceSkip()
2854746670000: global: PseudoInst::quiesceSkip()
2854746926500: global: PseudoInst::quiesceSkip()
2854747162500: global: PseudoInst::quiesceSkip()
2854748715500: global: PseudoInst::quiesceSkip()
2854749480500: global: PseudoInst::quiesceSkip()
2854750983500: global: PseudoInst::quiesceSkip()
2854751012500: global: PseudoInst::quiesceSkip()
2854751272500: global: PseudoInst::quiesceSkip()
2854752568000: global: PseudoInst::quiesceSkip()
2854752951500: global: PseudoInst::quiesceSkip()
2854754530500: global: PseudoInst::quiesceSkip()
2854755649500: global: PseudoInst::quiesceSkip()
2854755693500: global: PseudoInst::quiesceSkip()
2854755870500: global: PseudoInst::quiesceSkip()
2854756293000: global: PseudoInst::quiesceSkip()
2854756658000: global: PseudoInst::quiesceSkip()
2854756732000: global: PseudoInst::quiesceSkip()
2854756798000: global: PseudoInst::quiesceSkip()
2854756973000: global: PseudoInst::quiesceSkip()
2854757434500: global: PseudoInst::quiesceSkip()
2854757517500: global: PseudoInst::quiesceSkip()
2854757720500: global: PseudoInst::quiesceSkip()
2854757863500: global: PseudoInst::quiesceSkip()
2854758348500: global: PseudoInst::quiesceSkip()
2854758712500: global: PseudoInst::quiesceSkip()
2854759333000: global: PseudoInst::quiesceSkip()
2854759419500: global: PseudoInst::quiesceSkip()
2854759560000: global: PseudoInst::quiesceSkip()
2854759662000: global: PseudoInst::quiesceSkip()
2854759734500: global: PseudoInst::quiesceSkip()
2854760052000: global: PseudoInst::quiesceSkip()
2854760573500: global: PseudoInst::quiesceSkip()
2854761095500: global: PseudoInst::quiesceSkip()
2854761357000: global: PseudoInst::quiesceSkip()
2854762886500: global: PseudoInst::quiesceSkip()
2854763237500: global: PseudoInst::quiesceSkip()
2854763475500: global: PseudoInst::quiesceSkip()
2854764603000: global: PseudoInst::quiesceSkip()
2854764957500: global: PseudoInst::quiesceSkip()
2854765270000: global: PseudoInst::quiesceSkip()
2854766305500: global: PseudoInst::quiesceSkip()
2854766570000: global: PseudoInst::quiesceSkip()
2854766873000: global: PseudoInst::quiesceSkip()
2854768141500: global: PseudoInst::quiesceSkip()
2854768481500: global: PseudoInst::quiesceSkip()
2854768711000: global: PseudoInst::quiesceSkip()
2854769033500: global: PseudoInst::quiesceSkip()
2854769987500: global: PseudoInst::quiesceSkip()
2854770313500: global: PseudoInst::quiesceSkip()
2854770727500: global: PseudoInst::quiesceSkip()
2854771021500: global: PseudoInst::quiesceSkip()
2854771770500: global: PseudoInst::quiesceSkip()
2854772336000: global: PseudoInst::quiesceSkip()
2854783293000: global: PseudoInst::quiesceSkip()
2854784812500: global: PseudoInst::quiesceSkip()
2854785156000: global: PseudoInst::quiesceSkip()
2854785393500: global: PseudoInst::quiesceSkip()
2854785752500: global: PseudoInst::quiesceSkip()
2854786186000: global: PseudoInst::quiesceSkip()
2854786511000: global: PseudoInst::quiesceSkip()
2854793410000: global: PseudoInst::quiesceSkip()
2854793578500: global: PseudoInst::quiesceSkip()
2854794727500: global: PseudoInst::quiesceSkip()
2854795069000: global: PseudoInst::quiesceSkip()
2854795330500: global: PseudoInst::quiesceSkip()
2854797094500: global: PseudoInst::quiesceSkip()
2854797438500: global: PseudoInst::quiesceSkip()
2854797685500: global: PseudoInst::quiesceSkip()
2854798022500: global: PseudoInst::quiesceSkip()
2854798524000: global: PseudoInst::quiesceSkip()
2854799213500: global: PseudoInst::quiesceSkip()
2854799318000: global: PseudoInst::quiesceSkip()
2854799511500: global: PseudoInst::quiesceSkip()
2854800094500: global: PseudoInst::quiesceSkip()
2854800313000: global: PseudoInst::quiesceSkip()
2854800876500: global: PseudoInst::quiesceSkip()
2854801062000: global: PseudoInst::quiesceSkip()
2854801080500: global: PseudoInst::quiesceSkip()
2854801163500: global: PseudoInst::quiesceSkip()
2854801537000: global: PseudoInst::quiesceSkip()
2854801841000: global: PseudoInst::quiesceSkip()
2854801929000: global: PseudoInst::quiesceSkip()
2854802290000: global: PseudoInst::quiesceSkip()
2854803330500: global: PseudoInst::quiesceSkip()
2854804302500: global: PseudoInst::quiesceSkip()
2854805413500: global: PseudoInst::quiesceSkip()
2854805991500: global: PseudoInst::quiesceSkip()
2854808223000: global: PseudoInst::quiesceSkip()
2854808824500: global: PseudoInst::quiesceSkip()
2854809215000: global: PseudoInst::quiesceSkip()
2854809595500: global: PseudoInst::quiesceSkip()
2854809852000: global: PseudoInst::quiesceSkip()
2854810137000: global: PseudoInst::quiesceSkip()
2854810596500: global: PseudoInst::quiesceSkip()
2854811339500: global: PseudoInst::quiesceSkip()
2854811699000: global: PseudoInst::quiesceSkip()
2854812166500: global: PseudoInst::quiesceSkip()
2854812529500: global: PseudoInst::quiesceSkip()
2854812853000: global: PseudoInst::quiesceSkip()
2854815048000: global: PseudoInst::quiesceSkip()
2854816168000: global: PseudoInst::quiesceSkip()
2854816459000: global: PseudoInst::quiesceSkip()
2854817339500: global: PseudoInst::quiesceSkip()
2854817710500: global: PseudoInst::quiesceSkip()
2854818018000: global: PseudoInst::quiesceSkip()
2854818402500: global: PseudoInst::quiesceSkip()
2854818791500: global: PseudoInst::quiesceSkip()
2854819077000: global: PseudoInst::quiesceSkip()
2854819390000: global: PseudoInst::quiesceSkip()
2854819709500: global: PseudoInst::quiesceSkip()
2854819994000: global: PseudoInst::quiesceSkip()
2854820556500: global: PseudoInst::quiesceSkip()
2854820813000: global: PseudoInst::quiesceSkip()
2854821049500: global: PseudoInst::quiesceSkip()
2854821489500: global: PseudoInst::quiesceSkip()
2854821756500: global: PseudoInst::quiesceSkip()
2854821993500: global: PseudoInst::quiesceSkip()
2854825552500: global: PseudoInst::quiesceSkip()
2854825893500: global: PseudoInst::quiesceSkip()
2854826191000: global: PseudoInst::quiesceSkip()
2854826783000: global: PseudoInst::quiesceSkip()
2854827264500: global: PseudoInst::quiesceSkip()
2854827539000: global: PseudoInst::quiesceSkip()
2854828746500: global: PseudoInst::quiesceSkip()
2854829031000: global: PseudoInst::quiesceSkip()
2854829367000: global: PseudoInst::quiesceSkip()
2854831037500: global: PseudoInst::quiesceSkip()
2854831294000: global: PseudoInst::quiesceSkip()
2854831629000: global: PseudoInst::quiesceSkip()
2854833272500: global: PseudoInst::quiesceSkip()
2854833855500: global: PseudoInst::quiesceSkip()
2854835241500: global: PseudoInst::quiesceSkip()
2854838616000: global: PseudoInst::quiesceSkip()
2854838973000: global: PseudoInst::quiesceSkip()
2854839234500: global: PseudoInst::quiesceSkip()
2854840719500: global: PseudoInst::quiesceSkip()
2854841054000: global: PseudoInst::quiesceSkip()
2854841306000: global: PseudoInst::quiesceSkip()
2854842789000: global: PseudoInst::quiesceSkip()
2854843142500: global: PseudoInst::quiesceSkip()
2854843382000: global: PseudoInst::quiesceSkip()
2854844196500: global: PseudoInst::quiesceSkip()
2854844536500: global: PseudoInst::quiesceSkip()
2854844834000: global: PseudoInst::quiesceSkip()
2854846094000: global: PseudoInst::quiesceSkip()
2854846480500: global: PseudoInst::quiesceSkip()
2854846774000: global: PseudoInst::quiesceSkip()
2854847186000: global: PseudoInst::quiesceSkip()
2854847442500: global: PseudoInst::quiesceSkip()
2854847718500: global: PseudoInst::quiesceSkip()
2854849859000: global: PseudoInst::quiesceSkip()
2854851327000: global: PseudoInst::quiesceSkip()
2854851629000: global: PseudoInst::quiesceSkip()
2854855617500: global: PseudoInst::quiesceSkip()
2854856036000: global: PseudoInst::quiesceSkip()
2854856408000: global: PseudoInst::quiesceSkip()
2854857889000: global: PseudoInst::quiesceSkip()
2854858261500: global: PseudoInst::quiesceSkip()
2854858592000: global: PseudoInst::quiesceSkip()
2854859955000: global: PseudoInst::quiesceSkip()
2854860359500: global: PseudoInst::quiesceSkip()
2854860632500: global: PseudoInst::quiesceSkip()
2854862581500: global: PseudoInst::quiesceSkip()
2854862945500: global: PseudoInst::quiesceSkip()
2854863228500: global: PseudoInst::quiesceSkip()
2854863653500: global: PseudoInst::quiesceSkip()
2854863910000: global: PseudoInst::quiesceSkip()
2854864181500: global: PseudoInst::quiesceSkip()
2854864457500: global: PseudoInst::quiesceSkip()
2854864770500: global: PseudoInst::quiesceSkip()
2854865042500: global: PseudoInst::quiesceSkip()
2854865837500: global: PseudoInst::quiesceSkip()
2854866158500: global: PseudoInst::quiesceSkip()
2854866491000: global: PseudoInst::quiesceSkip()
2854868546500: global: PseudoInst::quiesceSkip()
2854868883500: global: PseudoInst::quiesceSkip()
2854869132500: global: PseudoInst::quiesceSkip()
2854874124500: global: PseudoInst::quiesceSkip()
2854874471500: global: PseudoInst::quiesceSkip()
2854874822000: global: PseudoInst::quiesceSkip()
2854877993500: global: PseudoInst::quiesceSkip()
2854878300000: global: PseudoInst::quiesceSkip()
2854878561500: global: PseudoInst::quiesceSkip()
2854881143000: global: PseudoInst::quiesceSkip()
2854882113000: global: PseudoInst::quiesceSkip()
2854887005000: global: PseudoInst::quiesceSkip()
2854888580500: global: PseudoInst::quiesceSkip()
2854888926500: global: PseudoInst::quiesceSkip()
2854889481500: global: PseudoInst::quiesceSkip()
2854891188500: global: PseudoInst::quiesceSkip()
2854892556500: global: PseudoInst::quiesceSkip()
2854892800500: global: PseudoInst::quiesceSkip()
2854894404500: global: PseudoInst::quiesceSkip()
2854894782000: global: PseudoInst::quiesceSkip()
2854895140000: global: PseudoInst::quiesceSkip()
2854895833000: global: PseudoInst::quiesceSkip()
2854896117500: global: PseudoInst::quiesceSkip()
2854896389500: global: PseudoInst::quiesceSkip()
2854899815000: global: PseudoInst::quiesceSkip()
2854900634000: global: PseudoInst::quiesceSkip()
2854901095000: global: PseudoInst::quiesceSkip()
2854902506000: global: PseudoInst::quiesceSkip()
2854902809000: global: PseudoInst::quiesceSkip()
2854905654500: global: PseudoInst::quiesceSkip()
2854907666500: global: PseudoInst::quiesceSkip()
2854907968500: global: PseudoInst::quiesceSkip()
2854908217000: global: PseudoInst::quiesceSkip()
2854908304000: global: PseudoInst::quiesceSkip()
2854908542500: global: PseudoInst::quiesceSkip()
2854909227000: global: PseudoInst::quiesceSkip()
2854909549500: global: PseudoInst::quiesceSkip()
2854911158500: global: PseudoInst::quiesceSkip()
2854912157000: global: PseudoInst::quiesceSkip()
2854913043000: global: PseudoInst::quiesceSkip()
2854913564000: global: PseudoInst::quiesceSkip()
2854915726500: global: PseudoInst::quiesceSkip()
2854915944500: global: PseudoInst::quiesceSkip()
2854917406000: global: PseudoInst::quiesceSkip()
2854918331500: global: PseudoInst::quiesceSkip()
2854918333000: global: PseudoInst::quiesceSkip()
2854918702000: global: PseudoInst::quiesceSkip()
2854919383500: global: PseudoInst::quiesceSkip()
2854919952000: global: PseudoInst::quiesceSkip()
2854920055500: global: PseudoInst::quiesceSkip()
2854920601000: global: PseudoInst::quiesceSkip()
2854921351000: global: PseudoInst::quiesceSkip()
2854922157000: global: PseudoInst::quiesceSkip()
2854922980000: global: PseudoInst::quiesceSkip()
2854923725000: global: PseudoInst::quiesceSkip()
2854924054000: global: PseudoInst::quiesceSkip()
2854924847500: global: PseudoInst::quiesceSkip()
2854924914500: global: PseudoInst::quiesceSkip()
2854925121000: global: PseudoInst::quiesceSkip()
2854925237000: global: PseudoInst::quiesceSkip()
2854928688000: global: PseudoInst::quiesceSkip()
2854929106500: global: PseudoInst::quiesceSkip()
2854929358500: global: PseudoInst::quiesceSkip()
2854930409500: global: PseudoInst::quiesceSkip()
2854930505000: global: PseudoInst::quiesceSkip()
2854931020000: global: PseudoInst::quiesceSkip()
2854931295000: global: PseudoInst::quiesceSkip()
2854931378500: global: PseudoInst::quiesceSkip()
2854931410500: global: PseudoInst::quiesceSkip()
2854932566500: global: PseudoInst::quiesceSkip()
2854934052000: global: PseudoInst::quiesceSkip()
2854934415000: global: PseudoInst::quiesceSkip()
2854934718000: global: PseudoInst::quiesceSkip()
2854935383000: global: PseudoInst::quiesceSkip()
2854935645000: global: PseudoInst::quiesceSkip()
2854936095500: global: PseudoInst::quiesceSkip()
2854936350000: global: PseudoInst::quiesceSkip()
2854936649000: global: PseudoInst::quiesceSkip()
2854936856500: global: PseudoInst::quiesceSkip()
2854943703500: global: PseudoInst::quiesceSkip()
2854943864000: global: PseudoInst::quiesceSkip()
2854944283500: global: PseudoInst::quiesceSkip()
2854944509500: global: PseudoInst::quiesceSkip()
2854944848000: global: PseudoInst::quiesceSkip()
2854945971500: global: PseudoInst::quiesceSkip()
2854946106000: global: PseudoInst::quiesceSkip()
2854946377000: global: PseudoInst::quiesceSkip()
2854946723500: global: PseudoInst::quiesceSkip()
2854948655500: global: PseudoInst::quiesceSkip()
2854948931000: global: PseudoInst::quiesceSkip()
2854949323500: global: PseudoInst::quiesceSkip()
2854949571500: global: PseudoInst::quiesceSkip()
2854949818000: global: PseudoInst::quiesceSkip()
2854950452500: global: PseudoInst::quiesceSkip()
2854950646000: global: PseudoInst::quiesceSkip()
2854951003000: global: PseudoInst::quiesceSkip()
2854951486500: global: PseudoInst::quiesceSkip()
2854952147500: global: PseudoInst::quiesceSkip()
2854952454500: global: PseudoInst::quiesceSkip()
2854953016500: global: PseudoInst::quiesceSkip()
2854953459500: global: PseudoInst::quiesceSkip()
2854953664500: global: PseudoInst::quiesceSkip()
2854953875500: global: PseudoInst::quiesceSkip()
2854954163500: global: PseudoInst::quiesceSkip()
2854954462500: global: PseudoInst::quiesceSkip()
2854954831500: global: PseudoInst::quiesceSkip()
2854955034500: global: PseudoInst::quiesceSkip()
2854955313000: global: PseudoInst::quiesceSkip()
2854955660000: global: PseudoInst::quiesceSkip()
2854955856000: global: PseudoInst::quiesceSkip()
2854956561500: global: PseudoInst::quiesceSkip()
2854956878000: global: PseudoInst::quiesceSkip()
2854957938500: global: PseudoInst::quiesceSkip()
2854958875500: global: PseudoInst::quiesceSkip()
2854961599500: global: PseudoInst::quiesceSkip()
2854962374500: global: PseudoInst::quiesceSkip()
2854963635500: global: PseudoInst::quiesceSkip()
2854966240000: global: PseudoInst::quiesceSkip()
2854966532500: global: PseudoInst::quiesceSkip()
2854966657500: global: PseudoInst::quiesceSkip()
2854967749500: global: PseudoInst::quiesceSkip()
2854967945500: global: PseudoInst::quiesceSkip()
2854968026000: global: PseudoInst::quiesceSkip()
2854968894500: global: PseudoInst::quiesceSkip()
2854969069500: global: PseudoInst::quiesceSkip()
2854969150000: global: PseudoInst::quiesceSkip()
2854970091500: global: PseudoInst::quiesceSkip()
2854970261500: global: PseudoInst::quiesceSkip()
2854970329000: global: PseudoInst::quiesceSkip()
2854971175500: global: PseudoInst::quiesceSkip()
2854971370500: global: PseudoInst::quiesceSkip()
2854971438000: global: PseudoInst::quiesceSkip()
2854972152500: global: PseudoInst::quiesceSkip()
2854973258000: global: PseudoInst::quiesceSkip()
2854973288000: global: PseudoInst::quiesceSkip()
2854973596000: global: PseudoInst::quiesceSkip()
2854973668500: global: PseudoInst::quiesceSkip()
2854973841500: global: PseudoInst::quiesceSkip()
2854973914000: global: PseudoInst::quiesceSkip()
2854974427500: global: PseudoInst::quiesceSkip()
2854975296000: global: PseudoInst::quiesceSkip()
2854975838500: global: PseudoInst::quiesceSkip()
2854976601500: global: PseudoInst::quiesceSkip()
2854977120500: global: PseudoInst::quiesceSkip()
2854977326500: global: PseudoInst::quiesceSkip()
2854978554000: global: PseudoInst::quiesceSkip()
2854978592000: global: PseudoInst::quiesceSkip()
2854979597500: global: PseudoInst::quiesceSkip()
2854980691500: global: PseudoInst::quiesceSkip()
2854981210500: global: PseudoInst::quiesceSkip()
2854981245000: global: PseudoInst::quiesceSkip()
2854981306500: global: PseudoInst::quiesce()
2854981542500: global: PseudoInst::quiesceSkip()
2854983660500: global: PseudoInst::quiesceSkip()
2854983770500: global: PseudoInst::quiesceSkip()
2854984400000: global: PseudoInst::quiesceSkip()
2854985481500: global: PseudoInst::quiesceSkip()
2854987724500: global: PseudoInst::quiesceSkip()
2854988918500: global: PseudoInst::quiesceSkip()
2854989245500: global: PseudoInst::quiesceSkip()
2854990616500: global: PseudoInst::quiesceSkip()
2854991684000: global: PseudoInst::quiesceSkip()
2854992026500: global: PseudoInst::quiesceSkip()
2854992259500: global: PseudoInst::quiesceSkip()
2854992590000: global: PseudoInst::quiesceSkip()
2854992909000: global: PseudoInst::quiesceSkip()
2854993350500: global: PseudoInst::quiesceSkip()
2854993695000: global: PseudoInst::quiesceSkip()
2854993914500: global: PseudoInst::quiesceSkip()
2854994306500: global: PseudoInst::quiesceSkip()
2854995311500: global: PseudoInst::quiesceSkip()
2854995542500: global: PseudoInst::quiesceSkip()
2854995848000: global: PseudoInst::quiesceSkip()
2854996099000: global: PseudoInst::quiesceSkip()
2854996298500: global: PseudoInst::quiesceSkip()
2854996570500: global: PseudoInst::quiesceSkip()
2854996899000: global: PseudoInst::quiesceSkip()
2854997209000: global: PseudoInst::quiesceSkip()
2854997622000: global: PseudoInst::quiesceSkip()
2854997970500: global: PseudoInst::quiesceSkip()
2854998547000: global: PseudoInst::quiesceSkip()
2854998819500: global: PseudoInst::quiesceSkip()
2854999146500: global: PseudoInst::quiesceSkip()
2854999374000: global: PseudoInst::quiesceSkip()
2854999900000: global: PseudoInst::quiesceSkip()
2855000172500: global: PseudoInst::quiesceSkip()
2855000361000: global: PseudoInst::quiesceSkip()
2855000665500: global: PseudoInst::quiesceSkip()
2855001027000: global: PseudoInst::quiesceSkip()
2855001322000: global: PseudoInst::quiesceSkip()
2855001536500: global: PseudoInst::quiesceSkip()
2855001819000: global: PseudoInst::quiesceSkip()
2855002053500: global: PseudoInst::quiesceSkip()
2855002585500: global: PseudoInst::quiesceSkip()
2855002868000: global: PseudoInst::quiesceSkip()
2855003151000: global: PseudoInst::quiesceSkip()
2855003362500: global: PseudoInst::quiesceSkip()
2855003628500: global: PseudoInst::quiesceSkip()
2855003863500: global: PseudoInst::quiesceSkip()
2855004061500: global: PseudoInst::quiesceSkip()
2855004323000: global: PseudoInst::quiesceSkip()
2855004557500: global: PseudoInst::quiesceSkip()
2855004917500: global: PseudoInst::quiesceSkip()
2855005230000: global: PseudoInst::quiesceSkip()
2855005405500: global: PseudoInst::quiesceSkip()
2855005691000: global: PseudoInst::quiesceSkip()
2855006144000: global: PseudoInst::quiesceSkip()
2855006370000: global: PseudoInst::quiesceSkip()
2855006699000: global: PseudoInst::quiesceSkip()
2855007022500: global: PseudoInst::quiesceSkip()
2855007248500: global: PseudoInst::quiesceSkip()
2855007455500: global: PseudoInst::quiesceSkip()
2855007728500: global: PseudoInst::quiesceSkip()
2855007963500: global: PseudoInst::quiesceSkip()
2855008189500: global: PseudoInst::quiesceSkip()
2855008454500: global: PseudoInst::quiesceSkip()
2855008689500: global: PseudoInst::quiesceSkip()
2855009058000: global: PseudoInst::quiesceSkip()
2855009391000: global: PseudoInst::quiesceSkip()
2855009617000: global: PseudoInst::quiesceSkip()
2855010275500: global: PseudoInst::quiesceSkip()
2855010679500: global: PseudoInst::quiesceSkip()
2855010905500: global: PseudoInst::quiesceSkip()
2855011255000: global: PseudoInst::quiesceSkip()
2855011535000: global: PseudoInst::quiesceSkip()
2855011761000: global: PseudoInst::quiesceSkip()
2855012889500: global: PseudoInst::quiesceSkip()
2855013257500: global: PseudoInst::quiesceSkip()
2855013506500: global: PseudoInst::quiesceSkip()
2855013807000: global: PseudoInst::quiesceSkip()
2855014063000: global: PseudoInst::quiesceSkip()
2855014409000: global: PseudoInst::quiesceSkip()
2855014947000: global: PseudoInst::quiesceSkip()
2855015253000: global: PseudoInst::quiesceSkip()
2855015550000: global: PseudoInst::quiesceSkip()
2855017406000: global: PseudoInst::quiesceSkip()
2855017745500: global: PseudoInst::quiesceSkip()
2855017979500: global: PseudoInst::quiesceSkip()
2855018186500: global: PseudoInst::quiesceSkip()
2855018462000: global: PseudoInst::quiesceSkip()
2855018689000: global: PseudoInst::quiesceSkip()
2855018911000: global: PseudoInst::quiesceSkip()
2855019176000: global: PseudoInst::quiesceSkip()
2855019410500: global: PseudoInst::quiesceSkip()
2855020237500: global: PseudoInst::quiesceSkip()
2855020325500: global: PseudoInst::quiesceSkip()
2855020621000: global: PseudoInst::quiesceSkip()
2855020849500: global: PseudoInst::quiesceSkip()
2855020941500: global: PseudoInst::quiesceSkip()
2855020976500: global: PseudoInst::quiesceSkip()
2855021870500: global: PseudoInst::quiesceSkip()
2855023298500: global: PseudoInst::quiesceSkip()
2855024892500: global: PseudoInst::quiesceSkip()
2855025271000: global: PseudoInst::quiesceSkip()
2855025633500: global: PseudoInst::quiesceSkip()
2855026631000: global: PseudoInst::quiesceSkip()
2855029602000: global: PseudoInst::quiesceSkip()
2855029790500: global: PseudoInst::quiesceSkip()
2855030145000: global: PseudoInst::quiesceSkip()
2855030453000: global: PseudoInst::quiesceSkip()
2855030856500: global: PseudoInst::quiesceSkip()
2855031861500: global: PseudoInst::quiesceSkip()
2855032089000: global: PseudoInst::quiesceSkip()
2855032398000: global: PseudoInst::quiesceSkip()
2855032608000: global: PseudoInst::quiesceSkip()
2855032843500: global: PseudoInst::quiesceSkip()
2855033364000: global: PseudoInst::quiesceSkip()
2855033711500: global: PseudoInst::quiesceSkip()
2855034977000: global: PseudoInst::quiesceSkip()
2855035899000: global: PseudoInst::quiesceSkip()
2855037028500: global: PseudoInst::quiesceSkip()
2855037341500: global: PseudoInst::quiesceSkip()
2855038186000: global: PseudoInst::quiesceSkip()
2855039087000: global: PseudoInst::quiesceSkip()
2855040004000: global: PseudoInst::quiesceSkip()
2855041676500: global: PseudoInst::quiesceSkip()
2855042403500: global: PseudoInst::quiesceSkip()
2855044192000: global: PseudoInst::quiesceSkip()
2855045953000: global: PseudoInst::quiesceSkip()
2855046894500: global: PseudoInst::quiesceSkip()
2855050014500: global: PseudoInst::quiesceSkip()
2855050815000: global: PseudoInst::quiesceSkip()
2855050910500: global: PseudoInst::quiesceSkip()
2855052165500: global: PseudoInst::quiesceSkip()
2855052378500: global: PseudoInst::quiesceSkip()
2855052537000: global: PseudoInst::quiesceSkip()
2855053002000: global: PseudoInst::quiesceSkip()
2855053198500: global: PseudoInst::quiesceSkip()
2855053302500: global: PseudoInst::quiesceSkip()
2855053472000: global: PseudoInst::quiesceSkip()
2855053555000: global: PseudoInst::quiesceSkip()
2855053694500: global: PseudoInst::quiesceSkip()
2855053767000: global: PseudoInst::quiesceSkip()
2855054373000: global: PseudoInst::quiesceSkip()
2855054568000: global: PseudoInst::quiesceSkip()
2855055230000: global: PseudoInst::quiesceSkip()
2855055513500: global: PseudoInst::quiesceSkip()
2855055984500: global: PseudoInst::quiesceSkip()
2855056123500: global: PseudoInst::quiesceSkip()
2855056229000: global: PseudoInst::quiesceSkip()
2855056405500: global: PseudoInst::quiesceSkip()
2855056493000: global: PseudoInst::quiesceSkip()
2855056664500: global: PseudoInst::quiesceSkip()
2855056751000: global: PseudoInst::quiesceSkip()
2855056989500: global: PseudoInst::quiesceSkip()
2855057614000: global: PseudoInst::quiesceSkip()
2855058246500: global: PseudoInst::quiesceSkip()
2855058310000: global: PseudoInst::quiesceSkip()
2855058404000: global: PseudoInst::quiesceSkip()
2855058675000: global: PseudoInst::quiesceSkip()
2855058712500: global: PseudoInst::quiesceSkip()
2855058878500: global: PseudoInst::quiesceSkip()
2855060356500: global: PseudoInst::quiesceSkip()
2855060393000: global: PseudoInst::quiesceSkip()
2855060672500: global: PseudoInst::quiesceSkip()
2855061457000: global: PseudoInst::quiesceSkip()
2855065063000: global: PseudoInst::quiesceSkip()
2855065264500: global: PseudoInst::quiesceSkip()
2855065693500: global: PseudoInst::quiesceSkip()
2855066777000: global: PseudoInst::quiesceSkip()
2855066911000: global: PseudoInst::quiesceSkip()
2855067307500: global: PseudoInst::quiesceSkip()
2855074283500: global: PseudoInst::quiesceSkip()
2855074510500: global: PseudoInst::quiesceSkip()
2855074752500: global: PseudoInst::quiesceSkip()
2855075157500: global: PseudoInst::quiesceSkip()
2855075620500: global: PseudoInst::quiesceSkip()
2855077905500: global: PseudoInst::quiesceSkip()
2855078498000: global: PseudoInst::quiesceSkip()
2855079050000: global: PseudoInst::quiesceSkip()
2855079182500: global: PseudoInst::quiesceSkip()
2855079498500: global: PseudoInst::quiesceSkip()
2855079621500: global: PseudoInst::quiesceSkip()
2855079924000: global: PseudoInst::quiesceSkip()
2855080048000: global: PseudoInst::quiesceSkip()
2855080322500: global: PseudoInst::quiesceSkip()
2855080437500: global: PseudoInst::quiesceSkip()
2855080712000: global: PseudoInst::quiesceSkip()
2855080827000: global: PseudoInst::quiesceSkip()
2855082134500: global: PseudoInst::quiesceSkip()
2855082263500: global: PseudoInst::quiesceSkip()
2855082582000: global: PseudoInst::quiesceSkip()
2855082697000: global: PseudoInst::quiesceSkip()
2855082959000: global: PseudoInst::quiesceSkip()
2855083074000: global: PseudoInst::quiesceSkip()
2855083336000: global: PseudoInst::quiesceSkip()
2855083451000: global: PseudoInst::quiesceSkip()
2855083713000: global: PseudoInst::quiesceSkip()
2855083828000: global: PseudoInst::quiesceSkip()
2855084090000: global: PseudoInst::quiesceSkip()
2855084205000: global: PseudoInst::quiesceSkip()
2855084467000: global: PseudoInst::quiesceSkip()
2855084582000: global: PseudoInst::quiesceSkip()
2855084844000: global: PseudoInst::quiesceSkip()
2855084959000: global: PseudoInst::quiesceSkip()
2855085221000: global: PseudoInst::quiesceSkip()
2855085350000: global: PseudoInst::quiesceSkip()
2855087234000: global: PseudoInst::quiesceSkip()
2855087521000: global: PseudoInst::quiesceSkip()
2855089448500: global: PseudoInst::quiesceSkip()
2855090140500: global: PseudoInst::quiesceSkip()
2855090166500: global: PseudoInst::quiesceSkip()
2855090232500: global: PseudoInst::quiesceSkip()
2855091042000: global: PseudoInst::quiesceSkip()
2855091116000: global: PseudoInst::quiesceSkip()
2855091244000: global: PseudoInst::quiesceSkip()
2855091352500: global: PseudoInst::quiesceSkip()
2855091424000: global: PseudoInst::quiesceSkip()
2855093269500: global: PseudoInst::quiesceSkip()
2855095728000: global: PseudoInst::quiesceSkip()
2855096333500: global: PseudoInst::quiesceSkip()
2855096840000: global: PseudoInst::quiesceSkip()
2855097922500: global: PseudoInst::quiesceSkip()
2855097995000: global: PseudoInst::quiesceSkip()
2855098160500: global: PseudoInst::quiesceSkip()
2855099614500: global: PseudoInst::quiesceSkip()
2855100425000: global: PseudoInst::quiesceSkip()
2855110948500: global: PseudoInst::quiesceSkip()
2855111076500: global: PseudoInst::quiesceSkip()
2855111179000: global: PseudoInst::quiesceSkip()
2855111271500: global: PseudoInst::quiesceSkip()
2855111877500: global: PseudoInst::quiesceSkip()
2855113036500: global: PseudoInst::quiesceSkip()
2855115139000: global: PseudoInst::quiesceSkip()
2855115238500: global: PseudoInst::quiesceSkip()
2855115273500: global: PseudoInst::quiesceSkip()
[...]
2889975219500: global: PseudoInst::quiesceSkip()
2889976020000: global: PseudoInst::quiesceSkip()
2889979367000: global: PseudoInst::quiesceSkip()
2889980266000: global: PseudoInst::quiesceSkip()
2889980889500: global: PseudoInst::quiesceSkip()
2889981167000: global: PseudoInst::quiesceSkip()
2889981573000: global: PseudoInst::quiesceSkip()
2889981739500: global: PseudoInst::quiesceSkip()
2889981987500: global: PseudoInst::quiesceSkip()
2889983064500: global: PseudoInst::quiesceSkip()
2889983452500: global: PseudoInst::quiesceSkip()
2889983574000: global: PseudoInst::quiesceSkip()
2889984205500: global: PseudoInst::quiesceSkip()
2889984419500: global: PseudoInst::quiesceSkip()
2889984591000: global: PseudoInst::quiesceSkip()
2889985109000: global: PseudoInst::quiesceSkip()
2889985500000: global: PseudoInst::quiesceSkip()
2889987506500: global: PseudoInst::quiesceSkip()
2889987937000: global: PseudoInst::quiesceSkip()
2889989976500: global: PseudoInst::quiesceSkip()
2889990474000: global: PseudoInst::quiesceSkip()
2889992359000: global: PseudoInst::quiesceSkip()
2889993125500: global: PseudoInst::quiesceSkip()
2889993795000: global: PseudoInst::quiesceSkip()
2889993998000: global: PseudoInst::quiesceSkip()
2889994738000: global: PseudoInst::quiesceSkip()
2889995438000: global: PseudoInst::quiesceSkip()
2889996102500: global: PseudoInst::quiesceSkip()
2889996256000: global: PseudoInst::quiesceSkip()
2889996901500: global: PseudoInst::quiesceSkip()
2889997111500: global: PseudoInst::quiesceSkip()
2889997410500: global: PseudoInst::quiesceSkip()
2889999208500: global: PseudoInst::quiesceSkip()
2889999500500: global: PseudoInst::quiesceSkip()
2890001112500: global: PseudoInst::quiesceSkip()
2890001457000: global: PseudoInst::quiesceSkip()
2890001936000: global: PseudoInst::quiesceSkip()
2890002037500: global: PseudoInst::quiesceSkip()
2890003648500: global: PseudoInst::quiesceSkip()
2890003831500: global: PseudoInst::quiesceSkip()
2890003938000: global: PseudoInst::quiesceSkip()
2890003988000: global: PseudoInst::quiesceSkip()
2890005789000: global: PseudoInst::quiesceSkip()
2890007553500: global: PseudoInst::quiesceSkip()
2890010096000: global: PseudoInst::quiesceSkip()
2890010432000: global: PseudoInst::quiesceSkip()
2890010814500: global: PseudoInst::quiesceSkip()
2890011108500: global: PseudoInst::quiesceSkip()
2890011400000: global: PseudoInst::quiesceSkip()
2890011634500: global: PseudoInst::quiesceSkip()
2890012001500: global: PseudoInst::quiesceSkip()
2890012325500: global: PseudoInst::quiesceSkip()
2890012527500: global: PseudoInst::quiesceSkip()
2890012966000: global: PseudoInst::quiesceSkip()
2890013118500: global: PseudoInst::quiesceSkip()
2890015151500: global: PseudoInst::quiesceSkip()
2890015745000: global: PseudoInst::quiesceSkip()
2890016164000: global: PseudoInst::quiesceSkip()
2890016463500: global: PseudoInst::quiesceSkip()
2890016704500: global: PseudoInst::quiesceSkip()
2890017060500: global: PseudoInst::quiesceSkip()
2890017335000: global: PseudoInst::quiesceSkip()
2890017569500: global: PseudoInst::quiesceSkip()
2890017924500: global: PseudoInst::quiesceSkip()
2890018189500: global: PseudoInst::quiesceSkip()
2890018423500: global: PseudoInst::quiesceSkip()
2890018890500: global: PseudoInst::quiesceSkip()
2890019155500: global: PseudoInst::quiesceSkip()
2890019389500: global: PseudoInst::quiesceSkip()
2890019632500: global: PseudoInst::quiesceSkip()
2890019729500: global: PseudoInst::quiesceSkip()
2890020012000: global: PseudoInst::quiesceSkip()
2890020277000: global: PseudoInst::quiesceSkip()
2890020511500: global: PseudoInst::quiesceSkip()
2890020941500: global: PseudoInst::quiesceSkip()
2890021206500: global: PseudoInst::quiesceSkip()
2890021440500: global: PseudoInst::quiesceSkip()
2890021707500: global: PseudoInst::quiesceSkip()
2890021972500: global: PseudoInst::quiesceSkip()
2890022206500: global: PseudoInst::quiesceSkip()
2890022712500: global: PseudoInst::quiesceSkip()
2890023022000: global: PseudoInst::quiesceSkip()
2890023304000: global: PseudoInst::quiesceSkip()
2890023740000: global: PseudoInst::quiesceSkip()
2890024116500: global: PseudoInst::quiesceSkip()
2890024350000: global: PseudoInst::quiesceSkip()
2890025249500: global: PseudoInst::quiesceSkip()
2890025571000: global: PseudoInst::quiesceSkip()
2890025835000: global: PseudoInst::quiesceSkip()
2890026237500: global: PseudoInst::quiesceSkip()
2890026472500: global: PseudoInst::quiesceSkip()
2890027397000: global: PseudoInst::quiesceSkip()
2890027690500: global: PseudoInst::quiesceSkip()
2890027926500: global: PseudoInst::quiesceSkip()
2890028202500: global: PseudoInst::quiesceSkip()
2890029697500: global: PseudoInst::quiesceSkip()
2890029969500: global: PseudoInst::quiesceSkip()
2890030205500: global: PseudoInst::quiesceSkip()
2890030410500: global: PseudoInst::quiesceSkip()
2890030675500: global: PseudoInst::quiesceSkip()
2890030909500: global: PseudoInst::quiesceSkip()
2890031934500: global: PseudoInst::quiesceSkip()
2890033043500: global: PseudoInst::quiesceSkip()
2890033312500: global: PseudoInst::quiesceSkip()
2890033606500: global: PseudoInst::quiesceSkip()
2890033850500: global: PseudoInst::quiesceSkip()
2890034054000: global: PseudoInst::quiesceSkip()
2890034483500: global: PseudoInst::quiesceSkip()
2890035660500: global: PseudoInst::quiesceSkip()
2890035955000: global: PseudoInst::quiesceSkip()
2890036383000: global: PseudoInst::quiesceSkip()
2890036719000: global: PseudoInst::quiesceSkip()
2890036967500: global: PseudoInst::quiesceSkip()
2890037258000: global: PseudoInst::quiesceSkip()
2890037431500: global: PseudoInst::quiesceSkip()
2890038754000: global: PseudoInst::quiesceSkip()
2890039276500: global: PseudoInst::quiesceSkip()
2890040171500: global: PseudoInst::quiesceSkip()
2890041108000: global: PseudoInst::quiesceSkip()
2890041419000: global: PseudoInst::quiesceSkip()
2890041661500: global: PseudoInst::quiesceSkip()
2890042676000: global: PseudoInst::quiesceSkip()
2890042951500: global: PseudoInst::quiesceSkip()
2890043206500: global: PseudoInst::quiesceSkip()
2890043419000: global: PseudoInst::quiesceSkip()
2890043694500: global: PseudoInst::quiesceSkip()
2890043928500: global: PseudoInst::quiesceSkip()
2890044471500: global: PseudoInst::end_profiling()
2890044486500: global: PseudoInst::thread_inactive()
2890044877500: global: PseudoInst::quiesceSkip()
2890044908500: global: PseudoInst::quiesceSkip()
2890044911000: global: PseudoInst::quiesceSkip()
2890045038000: global: PseudoInst::quiesceSkip()
2890045292000: global: PseudoInst::quiesceSkip()
2890045719000: global: PseudoInst::quiesceSkip()
2890045935000: global: PseudoInst::quiesceSkip()
2890045989000: global: PseudoInst::thread_active()
2890046024500: global: PseudoInst::quiesceSkip()
2890046144000: global: PseudoInst::quiesceSkip()
2890046375500: global: PseudoInst::quiesceSkip()
2890046451500: global: PseudoInst::quiesceSkip()
2890046601000: global: PseudoInst::quiesceSkip()
2890046684000: global: PseudoInst::quiesceSkip()
2890046778500: global: PseudoInst::quiesceSkip()
2890047067000: global: PseudoInst::quiesceSkip()
2890047563500: global: PseudoInst::quiesceSkip()
2890047879500: global: PseudoInst::quiesceSkip()
2890048024500: global: PseudoInst::quiesceSkip()
2890048538000: global: PseudoInst::quiesceSkip()
2890048811500: global: PseudoInst::thread_active()
2890049045000: global: PseudoInst::quiesceSkip()
2890050190000: global: PseudoInst::quiesceSkip()
2890050402500: global: PseudoInst::quiesceSkip()
2890052012000: global: PseudoInst::quiesceSkip()
2890052134500: global: PseudoInst::quiesceSkip()
2890053128500: global: PseudoInst::thread_active()
2890053238000: global: PseudoInst::quiesceSkip()
2890054403000: global: PseudoInst::quiesceSkip()
2890055317500: global: PseudoInst::quiesceSkip()
2890055424000: global: PseudoInst::thread_active()
2891087032500: global: PseudoInst::quiesceSkip()
2891087400000: global: PseudoInst::quiesceSkip()
2891087636000: global: PseudoInst::quiesceSkip()
2891089404500: global: PseudoInst::quiesceSkip()
2891089901000: global: PseudoInst::quiesceSkip()
2891091097000: global: PseudoInst::quiesceSkip()
2891091585000: global: PseudoInst::quiesceSkip()
2891091689500: global: PseudoInst::quiesceSkip()
2891091890500: global: PseudoInst::quiesceSkip()
2891092006500: global: PseudoInst::quiesceSkip()
2891092268500: global: PseudoInst::quiesceSkip()
2891092285000: global: PseudoInst::quiesceSkip()
2891092468500: global: PseudoInst::quiesceSkip()
2891093181000: global: PseudoInst::quiesceSkip()
2891093234000: global: PseudoInst::quiesceSkip()
2891093641000: global: PseudoInst::quiesceSkip()
2891094014500: global: PseudoInst::quiesceSkip()
2891102029500: global: PseudoInst::quiesceSkip()
2891107190000: global: PseudoInst::quiesceSkip()
2891112894000: global: PseudoInst::quiesceSkip()
2891117800000: global: PseudoInst::quiesceSkip()
2891122480000: global: PseudoInst::quiesceSkip()
2891122837500: global: PseudoInst::quiesceSkip()
2891123949000: global: PseudoInst::quiesceSkip()
2891124974500: global: PseudoInst::quiesceSkip()
2891125900000: global: PseudoInst::quiesceSkip()
2891131166000: global: PseudoInst::quiesceSkip()
2891136289500: global: PseudoInst::quiesceSkip()
2891141495000: global: PseudoInst::quiesceSkip()
2891146243500: global: PseudoInst::quiesceSkip()
2891151403000: global: PseudoInst::quiesceSkip()
2891156083500: global: PseudoInst::quiesceSkip()
2891158898000: global: PseudoInst::quiesceSkip()
2891160354500: global: PseudoInst::quiesceSkip()
2891171541000: global: PseudoInst::quiesceSkip()
2891176627500: global: PseudoInst::quiesceSkip()
2891181219000: global: PseudoInst::quiesceSkip()
2891186390000: global: PseudoInst::quiesceSkip()
2891192171500: global: PseudoInst::quiesceSkip()
2891197170500: global: PseudoInst::quiesceSkip()
2891202183000: global: PseudoInst::quiesceSkip()
2891207310500: global: PseudoInst::quiesceSkip()
2891212154500: global: PseudoInst::quiesceSkip()
2891217480000: global: PseudoInst::quiesceSkip()
2891218537500: global: PseudoInst::quiesceSkip()
2891219413500: global: PseudoInst::quiesceSkip()
2891220701000: global: PseudoInst::quiesceSkip()
2891221861000: global: PseudoInst::quiesceSkip()
2891223042500: global: PseudoInst::quiesceSkip()
2891223695500: global: PseudoInst::quiesceSkip()
2891226801500: global: PseudoInst::quiesceSkip()
2891550458000: global: PseudoInst::end_profiling()
2891550472500: global: PseudoInst::thread_inactive()
2891554785000: global: PseudoInst::end_profiling()
2891554850000: global: PseudoInst::thread_inactive()
2891555321500: global: PseudoInst::end_profiling()
2891555336000: global: PseudoInst::thread_inactive()
2891682143500: global: PseudoInst::end_profiling()
2891682148500: global: PseudoInst::thread_inactive()
2891682344000: global: PseudoInst::thread_active()
2891682471500: global: PseudoInst::thread_active()
2891682486500: global: PseudoInst::thread_inactive()
2891682595500: global: PseudoInst::thread_active()
2891682611000: global: PseudoInst::thread_inactive()
2891682744500: global: PseudoInst::thread_active()
2891682759500: global: PseudoInst::thread_inactive()
2891682998500: global: PseudoInst::quiesceSkip()
2891683137000: global: PseudoInst::quiesceSkip()
2891683313500: global: PseudoInst::quiesceSkip()
2891683316000: global: PseudoInst::quiesceSkip()
2891683339000: global: PseudoInst::quiesceSkip()
2891683367000: global: PseudoInst::quiesceSkip()
2891683426000: global: PseudoInst::quiesceSkip()
2891683686000: global: PseudoInst::quiesceSkip()
2891683737500: global: PseudoInst::quiesceSkip()
2891683750000: global: PseudoInst::quiesceSkip()
2891683809500: global: PseudoInst::quiesceSkip()
2891683864000: global: PseudoInst::quiesceSkip()
2891683883500: global: PseudoInst::quiesce()
2891683964500: global: PseudoInst::quiesceSkip()
2891683978500: global: PseudoInst::quiesce()
2891684092000: global: PseudoInst::quiesceSkip()
2891684217000: global: PseudoInst::quiesce()
2891684244000: global: PseudoInst::quiesce()
2891684616000: global: PseudoInst::quiesce()
2891684655000: global: PseudoInst::quiesceSkip()
2891684750000: global: PseudoInst::quiesceSkip()
2891685440000: global: PseudoInst::quiesceSkip()
2891685820000: global: PseudoInst::quiesceSkip()
2891686072500: global: PseudoInst::quiesceSkip()
2891686096000: global: PseudoInst::quiesceSkip()
2891686210500: global: PseudoInst::quiesceSkip()
2891686310500: global: PseudoInst::quiesceSkip()
2891687028000: global: PseudoInst::quiesceSkip()
2891687053500: global: PseudoInst::quiesceSkip()
2891687405000: global: PseudoInst::quiesceSkip()
2891687576500: global: PseudoInst::quiesceSkip()
2891687579000: global: PseudoInst::quiesceSkip()
2891687970500: global: PseudoInst::quiesce()
2891688714000: global: PseudoInst::quiesce()
2891689127500: global: PseudoInst::quiesceSkip()
2891690435500: global: PseudoInst::quiesceSkip()
2891690771500: global: PseudoInst::quiesceSkip()
2891691016500: global: PseudoInst::quiesceSkip()
2891691274500: global: PseudoInst::quiesceSkip()
2891691526500: global: PseudoInst::quiesceSkip()
2891691752500: global: PseudoInst::quiesceSkip()
2891692684500: global: PseudoInst::quiesceSkip()
2891693175500: global: PseudoInst::quiesceSkip()
2891693431500: global: PseudoInst::quiesceSkip()
2891693961500: global: PseudoInst::quiesceSkip()
2891694519000: global: PseudoInst::quiesceSkip()
2891695350500: global: PseudoInst::quiesceSkip()
2891695610000: global: PseudoInst::quiesceSkip()
2891695790500: global: PseudoInst::quiesceSkip()
2891695994000: global: PseudoInst::quiesceSkip()
2891696081500: global: PseudoInst::quiesceSkip()
2891696387000: global: PseudoInst::quiesceSkip()
2891696419500: global: PseudoInst::thread_inactive()
2891696470000: global: PseudoInst::thread_active()
2891696979500: global: PseudoInst::quiesceSkip()
2891697050000: global: PseudoInst::quiesceSkip()
2891697274000: global: PseudoInst::quiesceSkip()
2891698515000: global: PseudoInst::quiesceSkip()
2891699669000: global: PseudoInst::quiesceSkip()
2891700849500: global: PseudoInst::thread_active()
2891701108500: global: PseudoInst::quiesceSkip()
2891701241500: global: PseudoInst::quiesceSkip()
2891702132500: global: PseudoInst::quiesceSkip()
2891702422500: global: PseudoInst::quiesceSkip()
2891703587000: global: PseudoInst::quiesceSkip()
2891704230500: global: PseudoInst::thread_active()
2891704404500: global: PseudoInst::quiesceSkip()
2891704515500: global: PseudoInst::quiesceSkip()
2891705175500: global: PseudoInst::quiesceSkip()
2891705459500: global: PseudoInst::quiesceSkip()
2891706611500: global: PseudoInst::quiesceSkip()
2891707239000: global: PseudoInst::thread_active()
2891707411500: global: PseudoInst::quiesceSkip()
2893191240000: global: PseudoInst::end_profiling()
2893191253000: global: PseudoInst::thread_inactive()
2893191876500: global: PseudoInst::end_profiling()
2893191890500: global: PseudoInst::thread_inactive()
2893196715000: global: PseudoInst::end_profiling()
2893196729000: global: PseudoInst::thread_inactive()
2893198209500: global: PseudoInst::end_profiling()
2893198222500: global: PseudoInst::thread_inactive()
2893198493500: global: PseudoInst::thread_active()
2893198505500: global: PseudoInst::end_profiling()
2893198514500: global: PseudoInst::thread_inactive()
2893198743500: global: PseudoInst::thread_active()
2893198804500: global: PseudoInst::end_profiling()
2893198809500: global: PseudoInst::thread_inactive()
2893198834500: global: PseudoInst::quiesceSkip()
2893198838500: global: PseudoInst::quiesceSkip()
2893198862000: global: PseudoInst::quiesceSkip()
2893198890000: global: PseudoInst::quiesceSkip()
2893198962500: global: PseudoInst::thread_active()
2893198973500: global: PseudoInst::end_profiling()
2893198979000: global: PseudoInst::thread_inactive()
2893199094000: global: PseudoInst::quiesceSkip()
2893199164000: global: PseudoInst::quiesceSkip()
2893199168500: global: PseudoInst::quiesceSkip()
2893199191500: global: PseudoInst::quiesceSkip()
2893199205500: global: PseudoInst::quiesce()
2893199258000: global: PseudoInst::quiesce()
2893199294500: global: PseudoInst::quiesceSkip()
2893199355000: global: PseudoInst::quiesceSkip()
2893199375000: global: PseudoInst::quiesce()
2893199529500: global: PseudoInst::quiesce()
2893199558000: global: PseudoInst::quiesce()
2893199839500: global: PseudoInst::quiesce()
2893199875000: global: PseudoInst::quiesceSkip()
2893199913500: global: PseudoInst::quiesceSkip()
2893199927500: global: PseudoInst::quiesce()
2893199965500: global: PseudoInst::quiesceSkip()
2893199970000: global: PseudoInst::quiesceSkip()
2893199979500: global: PseudoInst::quiesce()
2893200672000: global: PseudoInst::quiesceSkip()
2893200686000: global: PseudoInst::quiesceSkip()
2893200709000: global: PseudoInst::quiesceSkip()
2893200741000: global: PseudoInst::quiesceSkip()
2893200812500: global: PseudoInst::thread_active()
2893200824500: global: PseudoInst::end_profiling()
2893200831500: global: PseudoInst::thread_inactive()
2893201240000: global: PseudoInst::quiesceSkip()
2893201344500: global: PseudoInst::quiesceSkip()
2893202181000: global: PseudoInst::thread_active()
2893202182000: global: PseudoInst::quiesceSkip()
2893202192500: global: PseudoInst::thread_inactive()
2893202289500: global: PseudoInst::thread_active()
2893202290500: global: PseudoInst::thread_active()
2893202311000: global: PseudoInst::thread_inactive()
2893202454500: global: PseudoInst::thread_active()
2893202465500: global: PseudoInst::thread_inactive()
2893202693000: global: PseudoInst::quiesceSkip()
2893202703500: global: PseudoInst::quiesceSkip()
2893202896000: global: PseudoInst::quiesceSkip()
2893202950500: global: PseudoInst::quiesceSkip()
2893202953000: global: PseudoInst::quiesceSkip()
2893202970500: global: PseudoInst::quiesce()
2893203025000: global: PseudoInst::quiesceSkip()
2893203305500: global: PseudoInst::quiesceSkip()
2893203326500: global: PseudoInst::quiesceSkip()
2893203496500: global: PseudoInst::quiesceSkip()
2893203578000: global: PseudoInst::quiesceSkip()
2893203853000: global: PseudoInst::quiesceSkip()
2893204037500: global: PseudoInst::quiesceSkip()
2893204342500: global: PseudoInst::quiesce()
2893204641000: global: PseudoInst::quiesce()
2893205708500: global: PseudoInst::quiesceSkip()
2893207092500: global: PseudoInst::thread_inactive()
2893207136000: global: PseudoInst::thread_active()
2893207396500: global: PseudoInst::quiesceSkip()
2893207425000: global: PseudoInst::quiesceSkip()
2893207569500: global: PseudoInst::quiesceSkip()
2893207878500: global: PseudoInst::quiesceSkip()
2893208244000: global: PseudoInst::quiesceSkip()
2893208577500: global: PseudoInst::quiesceSkip()
2893209714000: global: PseudoInst::quiesceSkip()
2893209963500: global: PseudoInst::quiesceSkip()
2893210374500: global: PseudoInst::thread_active()
2893210404500: global: PseudoInst::quiesceSkip()
2893210553500: global: PseudoInst::quiesceSkip()
2893210680500: global: PseudoInst::quiesceSkip()
2893210756000: global: PseudoInst::quiesceSkip()
2893211315500: global: PseudoInst::quiesceSkip()
2893211588500: global: PseudoInst::quiesceSkip()
2893212561000: global: PseudoInst::quiesceSkip()
2893212685500: global: PseudoInst::quiesceSkip()
2893213102000: global: PseudoInst::quiesceSkip()
2893213277500: global: PseudoInst::thread_active()
2893213426000: global: PseudoInst::quiesceSkip()
2893213441500: global: PseudoInst::quiesceSkip()
2893213589500: global: PseudoInst::quiesceSkip()
2893214075500: global: PseudoInst::quiesceSkip()
2893214232000: global: PseudoInst::quiesceSkip()
2893214803500: global: PseudoInst::quiesceSkip()
2893215969000: global: PseudoInst::quiesceSkip()
2893216146000: global: PseudoInst::quiesceSkip()
2893216646000: global: PseudoInst::quiesceSkip()
2893216943000: global: PseudoInst::quiesceSkip()
2893217085500: global: PseudoInst::quiesceSkip()
2893218019000: global: PseudoInst::thread_active()
2893218271000: global: PseudoInst::quiesceSkip()
Exiting @ tick 2894010636000 because user interrupt received
