
---------- Begin Simulation Statistics ----------
sim_seconds                                  0.005213                       # Number of seconds simulated
sim_ticks                                  5213284000                       # Number of ticks simulated
final_tick                               3969785215000                       # Number of ticks from beginning of simulation (restored from checkpoints and never reset)
sim_freq                                 1000000000000                       # Frequency of simulated ticks
host_inst_rate                                 174762                       # Simulator instruction rate (inst/s)
host_op_rate                                   198380                       # Simulator op (including micro ops) rate (op/s)
host_tick_rate                               13516410                       # Simulator tick rate (ticks/s)
host_mem_usage                                 981100                       # Number of bytes of host memory used
host_seconds                                   385.70                       # Real time elapsed on the host
sim_insts                                    67405650                       # Number of instructions simulated
sim_ops                                      76515135                       # Number of ops (including micro ops) simulated
system.voltage_domain.voltage                       1                       # Voltage in Volts
system.clk_domain.clock                          1000                       # Clock period in ticks
system.mem_ctrls.bytes_read::switch_cpus0.dtb.walker         2240                       # Number of bytes read from this memory
system.mem_ctrls.bytes_read::switch_cpus0.itb.walker         1856                       # Number of bytes read from this memory
system.mem_ctrls.bytes_read::switch_cpus0.inst        23296                       # Number of bytes read from this memory
system.mem_ctrls.bytes_read::switch_cpus0.data        89920                       # Number of bytes read from this memory
system.mem_ctrls.bytes_read::switch_cpus1.dtb.walker         3392                       # Number of bytes read from this memory
system.mem_ctrls.bytes_read::switch_cpus1.itb.walker         2048                       # Number of bytes read from this memory
system.mem_ctrls.bytes_read::switch_cpus1.inst        29824                       # Number of bytes read from this memory
system.mem_ctrls.bytes_read::switch_cpus1.data       101056                       # Number of bytes read from this memory
system.mem_ctrls.bytes_read::switch_cpus2.dtb.walker          832                       # Number of bytes read from this memory
system.mem_ctrls.bytes_read::switch_cpus2.itb.walker          320                       # Number of bytes read from this memory
system.mem_ctrls.bytes_read::switch_cpus2.inst         1664                       # Number of bytes read from this memory
system.mem_ctrls.bytes_read::switch_cpus2.data        34816                       # Number of bytes read from this memory
system.mem_ctrls.bytes_read::switch_cpus3.dtb.walker         1728                       # Number of bytes read from this memory
system.mem_ctrls.bytes_read::switch_cpus3.itb.walker          896                       # Number of bytes read from this memory
system.mem_ctrls.bytes_read::switch_cpus3.inst        12608                       # Number of bytes read from this memory
system.mem_ctrls.bytes_read::switch_cpus3.data        96128                       # Number of bytes read from this memory
system.mem_ctrls.bytes_read::switch_cpus4.dtb.walker         1152                       # Number of bytes read from this memory
system.mem_ctrls.bytes_read::switch_cpus4.itb.walker          448                       # Number of bytes read from this memory
system.mem_ctrls.bytes_read::switch_cpus4.inst         5440                       # Number of bytes read from this memory
system.mem_ctrls.bytes_read::switch_cpus4.data        67840                       # Number of bytes read from this memory
system.mem_ctrls.bytes_read::switch_cpus5.dtb.walker         4544                       # Number of bytes read from this memory
system.mem_ctrls.bytes_read::switch_cpus5.itb.walker         1408                       # Number of bytes read from this memory
system.mem_ctrls.bytes_read::switch_cpus5.inst       138304                       # Number of bytes read from this memory
system.mem_ctrls.bytes_read::switch_cpus5.data       605184                       # Number of bytes read from this memory
system.mem_ctrls.bytes_read::switch_cpus6.dtb.walker          832                       # Number of bytes read from this memory
system.mem_ctrls.bytes_read::switch_cpus6.itb.walker           64                       # Number of bytes read from this memory
system.mem_ctrls.bytes_read::switch_cpus6.inst          320                       # Number of bytes read from this memory
system.mem_ctrls.bytes_read::switch_cpus6.data        31104                       # Number of bytes read from this memory
system.mem_ctrls.bytes_read::switch_cpus7.dtb.walker          576                       # Number of bytes read from this memory
system.mem_ctrls.bytes_read::switch_cpus7.itb.walker           64                       # Number of bytes read from this memory
system.mem_ctrls.bytes_read::switch_cpus7.inst         2496                       # Number of bytes read from this memory
system.mem_ctrls.bytes_read::switch_cpus7.data        30848                       # Number of bytes read from this memory
system.mem_ctrls.bytes_read::l2.prefetcher      2705216                       # Number of bytes read from this memory
system.mem_ctrls.bytes_read::cpu0.inst            320                       # Number of bytes read from this memory
system.mem_ctrls.bytes_read::cpu0.data            192                       # Number of bytes read from this memory
system.mem_ctrls.bytes_read::cpu5.inst            128                       # Number of bytes read from this memory
system.mem_ctrls.bytes_read::cpu5.data            256                       # Number of bytes read from this memory
system.mem_ctrls.bytes_read::total            3999360                       # Number of bytes read from this memory
system.mem_ctrls.bytes_inst_read::switch_cpus0.inst        23296                       # Number of instructions bytes read from this memory
system.mem_ctrls.bytes_inst_read::switch_cpus1.inst        29824                       # Number of instructions bytes read from this memory
system.mem_ctrls.bytes_inst_read::switch_cpus2.inst         1664                       # Number of instructions bytes read from this memory
system.mem_ctrls.bytes_inst_read::switch_cpus3.inst        12608                       # Number of instructions bytes read from this memory
system.mem_ctrls.bytes_inst_read::switch_cpus4.inst         5440                       # Number of instructions bytes read from this memory
system.mem_ctrls.bytes_inst_read::switch_cpus5.inst       138304                       # Number of instructions bytes read from this memory
system.mem_ctrls.bytes_inst_read::switch_cpus6.inst          320                       # Number of instructions bytes read from this memory
system.mem_ctrls.bytes_inst_read::switch_cpus7.inst         2496                       # Number of instructions bytes read from this memory
system.mem_ctrls.bytes_inst_read::cpu0.inst          320                       # Number of instructions bytes read from this memory
system.mem_ctrls.bytes_inst_read::cpu5.inst          128                       # Number of instructions bytes read from this memory
system.mem_ctrls.bytes_inst_read::total        214400                       # Number of instructions bytes read from this memory
system.mem_ctrls.bytes_written::writebacks       477056                       # Number of bytes written to this memory
system.mem_ctrls.bytes_written::total          477056                       # Number of bytes written to this memory
system.mem_ctrls.num_reads::switch_cpus0.dtb.walker           35                       # Number of read requests responded to by this memory
system.mem_ctrls.num_reads::switch_cpus0.itb.walker           29                       # Number of read requests responded to by this memory
system.mem_ctrls.num_reads::switch_cpus0.inst          364                       # Number of read requests responded to by this memory
system.mem_ctrls.num_reads::switch_cpus0.data         1405                       # Number of read requests responded to by this memory
system.mem_ctrls.num_reads::switch_cpus1.dtb.walker           53                       # Number of read requests responded to by this memory
system.mem_ctrls.num_reads::switch_cpus1.itb.walker           32                       # Number of read requests responded to by this memory
system.mem_ctrls.num_reads::switch_cpus1.inst          466                       # Number of read requests responded to by this memory
system.mem_ctrls.num_reads::switch_cpus1.data         1579                       # Number of read requests responded to by this memory
system.mem_ctrls.num_reads::switch_cpus2.dtb.walker           13                       # Number of read requests responded to by this memory
system.mem_ctrls.num_reads::switch_cpus2.itb.walker            5                       # Number of read requests responded to by this memory
system.mem_ctrls.num_reads::switch_cpus2.inst           26                       # Number of read requests responded to by this memory
system.mem_ctrls.num_reads::switch_cpus2.data          544                       # Number of read requests responded to by this memory
system.mem_ctrls.num_reads::switch_cpus3.dtb.walker           27                       # Number of read requests responded to by this memory
system.mem_ctrls.num_reads::switch_cpus3.itb.walker           14                       # Number of read requests responded to by this memory
system.mem_ctrls.num_reads::switch_cpus3.inst          197                       # Number of read requests responded to by this memory
system.mem_ctrls.num_reads::switch_cpus3.data         1502                       # Number of read requests responded to by this memory
system.mem_ctrls.num_reads::switch_cpus4.dtb.walker           18                       # Number of read requests responded to by this memory
system.mem_ctrls.num_reads::switch_cpus4.itb.walker            7                       # Number of read requests responded to by this memory
system.mem_ctrls.num_reads::switch_cpus4.inst           85                       # Number of read requests responded to by this memory
system.mem_ctrls.num_reads::switch_cpus4.data         1060                       # Number of read requests responded to by this memory
system.mem_ctrls.num_reads::switch_cpus5.dtb.walker           71                       # Number of read requests responded to by this memory
system.mem_ctrls.num_reads::switch_cpus5.itb.walker           22                       # Number of read requests responded to by this memory
system.mem_ctrls.num_reads::switch_cpus5.inst         2161                       # Number of read requests responded to by this memory
system.mem_ctrls.num_reads::switch_cpus5.data         9456                       # Number of read requests responded to by this memory
system.mem_ctrls.num_reads::switch_cpus6.dtb.walker           13                       # Number of read requests responded to by this memory
system.mem_ctrls.num_reads::switch_cpus6.itb.walker            1                       # Number of read requests responded to by this memory
system.mem_ctrls.num_reads::switch_cpus6.inst            5                       # Number of read requests responded to by this memory
system.mem_ctrls.num_reads::switch_cpus6.data          486                       # Number of read requests responded to by this memory
system.mem_ctrls.num_reads::switch_cpus7.dtb.walker            9                       # Number of read requests responded to by this memory
system.mem_ctrls.num_reads::switch_cpus7.itb.walker            1                       # Number of read requests responded to by this memory
system.mem_ctrls.num_reads::switch_cpus7.inst           39                       # Number of read requests responded to by this memory
system.mem_ctrls.num_reads::switch_cpus7.data          482                       # Number of read requests responded to by this memory
system.mem_ctrls.num_reads::l2.prefetcher        42269                       # Number of read requests responded to by this memory
system.mem_ctrls.num_reads::cpu0.inst               5                       # Number of read requests responded to by this memory
system.mem_ctrls.num_reads::cpu0.data               3                       # Number of read requests responded to by this memory
system.mem_ctrls.num_reads::cpu5.inst               2                       # Number of read requests responded to by this memory
system.mem_ctrls.num_reads::cpu5.data               4                       # Number of read requests responded to by this memory
system.mem_ctrls.num_reads::total               62490                       # Number of read requests responded to by this memory
system.mem_ctrls.num_writes::writebacks          7454                       # Number of write requests responded to by this memory
system.mem_ctrls.num_writes::total               7454                       # Number of write requests responded to by this memory
system.mem_ctrls.bw_read::switch_cpus0.dtb.walker       429672                       # Total read bandwidth from this memory (bytes/s)
system.mem_ctrls.bw_read::switch_cpus0.itb.walker       356014                       # Total read bandwidth from this memory (bytes/s)
system.mem_ctrls.bw_read::switch_cpus0.inst      4468584                       # Total read bandwidth from this memory (bytes/s)
system.mem_ctrls.bw_read::switch_cpus0.data     17248245                       # Total read bandwidth from this memory (bytes/s)
system.mem_ctrls.bw_read::switch_cpus1.dtb.walker       650646                       # Total read bandwidth from this memory (bytes/s)
system.mem_ctrls.bw_read::switch_cpus1.itb.walker       392843                       # Total read bandwidth from this memory (bytes/s)
system.mem_ctrls.bw_read::switch_cpus1.inst      5720770                       # Total read bandwidth from this memory (bytes/s)
system.mem_ctrls.bw_read::switch_cpus1.data     19384327                       # Total read bandwidth from this memory (bytes/s)
system.mem_ctrls.bw_read::switch_cpus2.dtb.walker       159592                       # Total read bandwidth from this memory (bytes/s)
system.mem_ctrls.bw_read::switch_cpus2.itb.walker        61382                       # Total read bandwidth from this memory (bytes/s)
system.mem_ctrls.bw_read::switch_cpus2.inst       319185                       # Total read bandwidth from this memory (bytes/s)
system.mem_ctrls.bw_read::switch_cpus2.data      6678324                       # Total read bandwidth from this memory (bytes/s)
system.mem_ctrls.bw_read::switch_cpus3.dtb.walker       331461                       # Total read bandwidth from this memory (bytes/s)
system.mem_ctrls.bw_read::switch_cpus3.itb.walker       171869                       # Total read bandwidth from this memory (bytes/s)
system.mem_ctrls.bw_read::switch_cpus3.inst      2418437                       # Total read bandwidth from this memory (bytes/s)
system.mem_ctrls.bw_read::switch_cpus3.data     18439049                       # Total read bandwidth from this memory (bytes/s)
system.mem_ctrls.bw_read::switch_cpus4.dtb.walker       220974                       # Total read bandwidth from this memory (bytes/s)
system.mem_ctrls.bw_read::switch_cpus4.itb.walker        85934                       # Total read bandwidth from this memory (bytes/s)
system.mem_ctrls.bw_read::switch_cpus4.inst      1043488                       # Total read bandwidth from this memory (bytes/s)
system.mem_ctrls.bw_read::switch_cpus4.data     13012911                       # Total read bandwidth from this memory (bytes/s)
system.mem_ctrls.bw_read::switch_cpus5.dtb.walker       871620                       # Total read bandwidth from this memory (bytes/s)
system.mem_ctrls.bw_read::switch_cpus5.itb.walker       270079                       # Total read bandwidth from this memory (bytes/s)
system.mem_ctrls.bw_read::switch_cpus5.inst     26529151                       # Total read bandwidth from this memory (bytes/s)
system.mem_ctrls.bw_read::switch_cpus5.data    116084986                       # Total read bandwidth from this memory (bytes/s)
system.mem_ctrls.bw_read::switch_cpus6.dtb.walker       159592                       # Total read bandwidth from this memory (bytes/s)
system.mem_ctrls.bw_read::switch_cpus6.itb.walker        12276                       # Total read bandwidth from this memory (bytes/s)
system.mem_ctrls.bw_read::switch_cpus6.inst        61382                       # Total read bandwidth from this memory (bytes/s)
system.mem_ctrls.bw_read::switch_cpus6.data      5966297                       # Total read bandwidth from this memory (bytes/s)
system.mem_ctrls.bw_read::switch_cpus7.dtb.walker       110487                       # Total read bandwidth from this memory (bytes/s)
system.mem_ctrls.bw_read::switch_cpus7.itb.walker        12276                       # Total read bandwidth from this memory (bytes/s)
system.mem_ctrls.bw_read::switch_cpus7.inst       478777                       # Total read bandwidth from this memory (bytes/s)
system.mem_ctrls.bw_read::switch_cpus7.data      5917192                       # Total read bandwidth from this memory (bytes/s)
system.mem_ctrls.bw_read::l2.prefetcher     518908235                       # Total read bandwidth from this memory (bytes/s)
system.mem_ctrls.bw_read::cpu0.inst             61382                       # Total read bandwidth from this memory (bytes/s)
system.mem_ctrls.bw_read::cpu0.data             36829                       # Total read bandwidth from this memory (bytes/s)
system.mem_ctrls.bw_read::cpu5.inst             24553                       # Total read bandwidth from this memory (bytes/s)
system.mem_ctrls.bw_read::cpu5.data             49105                       # Total read bandwidth from this memory (bytes/s)
system.mem_ctrls.bw_read::total             767147924                       # Total read bandwidth from this memory (bytes/s)
system.mem_ctrls.bw_inst_read::switch_cpus0.inst      4468584                       # Instruction read bandwidth from this memory (bytes/s)
system.mem_ctrls.bw_inst_read::switch_cpus1.inst      5720770                       # Instruction read bandwidth from this memory (bytes/s)
system.mem_ctrls.bw_inst_read::switch_cpus2.inst       319185                       # Instruction read bandwidth from this memory (bytes/s)
system.mem_ctrls.bw_inst_read::switch_cpus3.inst      2418437                       # Instruction read bandwidth from this memory (bytes/s)
system.mem_ctrls.bw_inst_read::switch_cpus4.inst      1043488                       # Instruction read bandwidth from this memory (bytes/s)
system.mem_ctrls.bw_inst_read::switch_cpus5.inst     26529151                       # Instruction read bandwidth from this memory (bytes/s)
system.mem_ctrls.bw_inst_read::switch_cpus6.inst        61382                       # Instruction read bandwidth from this memory (bytes/s)
system.mem_ctrls.bw_inst_read::switch_cpus7.inst       478777                       # Instruction read bandwidth from this memory (bytes/s)
system.mem_ctrls.bw_inst_read::cpu0.inst        61382                       # Instruction read bandwidth from this memory (bytes/s)
system.mem_ctrls.bw_inst_read::cpu5.inst        24553                       # Instruction read bandwidth from this memory (bytes/s)
system.mem_ctrls.bw_inst_read::total         41125709                       # Instruction read bandwidth from this memory (bytes/s)
system.mem_ctrls.bw_write::writebacks        91507771                       # Write bandwidth from this memory (bytes/s)
system.mem_ctrls.bw_write::total             91507771                       # Write bandwidth from this memory (bytes/s)
system.mem_ctrls.bw_total::writebacks        91507771                       # Total bandwidth to/from this memory (bytes/s)
system.mem_ctrls.bw_total::switch_cpus0.dtb.walker       429672                       # Total bandwidth to/from this memory (bytes/s)
system.mem_ctrls.bw_total::switch_cpus0.itb.walker       356014                       # Total bandwidth to/from this memory (bytes/s)
system.mem_ctrls.bw_total::switch_cpus0.inst      4468584                       # Total bandwidth to/from this memory (bytes/s)
system.mem_ctrls.bw_total::switch_cpus0.data     17248245                       # Total bandwidth to/from this memory (bytes/s)
system.mem_ctrls.bw_total::switch_cpus1.dtb.walker       650646                       # Total bandwidth to/from this memory (bytes/s)
system.mem_ctrls.bw_total::switch_cpus1.itb.walker       392843                       # Total bandwidth to/from this memory (bytes/s)
system.mem_ctrls.bw_total::switch_cpus1.inst      5720770                       # Total bandwidth to/from this memory (bytes/s)
system.mem_ctrls.bw_total::switch_cpus1.data     19384327                       # Total bandwidth to/from this memory (bytes/s)
system.mem_ctrls.bw_total::switch_cpus2.dtb.walker       159592                       # Total bandwidth to/from this memory (bytes/s)
system.mem_ctrls.bw_total::switch_cpus2.itb.walker        61382                       # Total bandwidth to/from this memory (bytes/s)
system.mem_ctrls.bw_total::switch_cpus2.inst       319185                       # Total bandwidth to/from this memory (bytes/s)
system.mem_ctrls.bw_total::switch_cpus2.data      6678324                       # Total bandwidth to/from this memory (bytes/s)
system.mem_ctrls.bw_total::switch_cpus3.dtb.walker       331461                       # Total bandwidth to/from this memory (bytes/s)
system.mem_ctrls.bw_total::switch_cpus3.itb.walker       171869                       # Total bandwidth to/from this memory (bytes/s)
system.mem_ctrls.bw_total::switch_cpus3.inst      2418437                       # Total bandwidth to/from this memory (bytes/s)
system.mem_ctrls.bw_total::switch_cpus3.data     18439049                       # Total bandwidth to/from this memory (bytes/s)
system.mem_ctrls.bw_total::switch_cpus4.dtb.walker       220974                       # Total bandwidth to/from this memory (bytes/s)
system.mem_ctrls.bw_total::switch_cpus4.itb.walker        85934                       # Total bandwidth to/from this memory (bytes/s)
system.mem_ctrls.bw_total::switch_cpus4.inst      1043488                       # Total bandwidth to/from this memory (bytes/s)
system.mem_ctrls.bw_total::switch_cpus4.data     13012911                       # Total bandwidth to/from this memory (bytes/s)
system.mem_ctrls.bw_total::switch_cpus5.dtb.walker       871620                       # Total bandwidth to/from this memory (bytes/s)
system.mem_ctrls.bw_total::switch_cpus5.itb.walker       270079                       # Total bandwidth to/from this memory (bytes/s)
system.mem_ctrls.bw_total::switch_cpus5.inst     26529151                       # Total bandwidth to/from this memory (bytes/s)
system.mem_ctrls.bw_total::switch_cpus5.data    116084986                       # Total bandwidth to/from this memory (bytes/s)
system.mem_ctrls.bw_total::switch_cpus6.dtb.walker       159592                       # Total bandwidth to/from this memory (bytes/s)
system.mem_ctrls.bw_total::switch_cpus6.itb.walker        12276                       # Total bandwidth to/from this memory (bytes/s)
system.mem_ctrls.bw_total::switch_cpus6.inst        61382                       # Total bandwidth to/from this memory (bytes/s)
system.mem_ctrls.bw_total::switch_cpus6.data      5966297                       # Total bandwidth to/from this memory (bytes/s)
system.mem_ctrls.bw_total::switch_cpus7.dtb.walker       110487                       # Total bandwidth to/from this memory (bytes/s)
system.mem_ctrls.bw_total::switch_cpus7.itb.walker        12276                       # Total bandwidth to/from this memory (bytes/s)
system.mem_ctrls.bw_total::switch_cpus7.inst       478777                       # Total bandwidth to/from this memory (bytes/s)
system.mem_ctrls.bw_total::switch_cpus7.data      5917192                       # Total bandwidth to/from this memory (bytes/s)
system.mem_ctrls.bw_total::l2.prefetcher    518908235                       # Total bandwidth to/from this memory (bytes/s)
system.mem_ctrls.bw_total::cpu0.inst            61382                       # Total bandwidth to/from this memory (bytes/s)
system.mem_ctrls.bw_total::cpu0.data            36829                       # Total bandwidth to/from this memory (bytes/s)
system.mem_ctrls.bw_total::cpu5.inst            24553                       # Total bandwidth to/from this memory (bytes/s)
system.mem_ctrls.bw_total::cpu5.data            49105                       # Total bandwidth to/from this memory (bytes/s)
system.mem_ctrls.bw_total::total            858655696                       # Total bandwidth to/from this memory (bytes/s)
system.mem_ctrls.readReqs                       62476                       # Number of read requests accepted
system.mem_ctrls.writeReqs                       7454                       # Number of write requests accepted
system.mem_ctrls.readBursts                     62476                       # Number of DRAM read bursts, including those serviced by the write queue
system.mem_ctrls.writeBursts                     7454                       # Number of DRAM write bursts, including those merged in the write queue
system.mem_ctrls.bytesReadDRAM                3988544                       # Total number of bytes read from DRAM
system.mem_ctrls.bytesReadWrQ                    9920                       # Total number of bytes read from write queue
system.mem_ctrls.bytesWritten                  475392                       # Total number of bytes written to DRAM
system.mem_ctrls.bytesReadSys                 3998464                       # Total read bytes from the system interface side
system.mem_ctrls.bytesWrittenSys               477056                       # Total written bytes from the system interface side
system.mem_ctrls.servicedByWrQ                    155                       # Number of DRAM read bursts serviced by the write queue
system.mem_ctrls.mergedWrBursts                     1                       # Number of DRAM write bursts merged with an existing one
system.mem_ctrls.neitherReadNorWriteReqs         1858                       # Number of requests that are neither read nor write
system.mem_ctrls.perBankRdBursts::0              2860                       # Per bank write bursts
system.mem_ctrls.perBankRdBursts::1              2410                       # Per bank write bursts
system.mem_ctrls.perBankRdBursts::2              4225                       # Per bank write bursts
system.mem_ctrls.perBankRdBursts::3              6129                       # Per bank write bursts
system.mem_ctrls.perBankRdBursts::4              4484                       # Per bank write bursts
system.mem_ctrls.perBankRdBursts::5              3413                       # Per bank write bursts
system.mem_ctrls.perBankRdBursts::6              4313                       # Per bank write bursts
system.mem_ctrls.perBankRdBursts::7              4158                       # Per bank write bursts
system.mem_ctrls.perBankRdBursts::8              5989                       # Per bank write bursts
system.mem_ctrls.perBankRdBursts::9              6137                       # Per bank write bursts
system.mem_ctrls.perBankRdBursts::10             4393                       # Per bank write bursts
system.mem_ctrls.perBankRdBursts::11             2116                       # Per bank write bursts
system.mem_ctrls.perBankRdBursts::12             2225                       # Per bank write bursts
system.mem_ctrls.perBankRdBursts::13             2744                       # Per bank write bursts
system.mem_ctrls.perBankRdBursts::14             3285                       # Per bank write bursts
system.mem_ctrls.perBankRdBursts::15             3440                       # Per bank write bursts
system.mem_ctrls.perBankWrBursts::0               111                       # Per bank write bursts
system.mem_ctrls.perBankWrBursts::1                75                       # Per bank write bursts
system.mem_ctrls.perBankWrBursts::2               461                       # Per bank write bursts
system.mem_ctrls.perBankWrBursts::3              1004                       # Per bank write bursts
system.mem_ctrls.perBankWrBursts::4               675                       # Per bank write bursts
system.mem_ctrls.perBankWrBursts::5               421                       # Per bank write bursts
system.mem_ctrls.perBankWrBursts::6               715                       # Per bank write bursts
system.mem_ctrls.perBankWrBursts::7               437                       # Per bank write bursts
system.mem_ctrls.perBankWrBursts::8              1257                       # Per bank write bursts
system.mem_ctrls.perBankWrBursts::9               675                       # Per bank write bursts
system.mem_ctrls.perBankWrBursts::10              419                       # Per bank write bursts
system.mem_ctrls.perBankWrBursts::11               46                       # Per bank write bursts
system.mem_ctrls.perBankWrBursts::12              126                       # Per bank write bursts
system.mem_ctrls.perBankWrBursts::13              240                       # Per bank write bursts
system.mem_ctrls.perBankWrBursts::14              411                       # Per bank write bursts
system.mem_ctrls.perBankWrBursts::15              355                       # Per bank write bursts
system.mem_ctrls.numRdRetry                         0                       # Number of times read queue was full causing retry
system.mem_ctrls.numWrRetry                         0                       # Number of times write queue was full causing retry
system.mem_ctrls.totGap                    5211538000                       # Total gap between requests
system.mem_ctrls.readPktSize::0                     0                       # Read request sizes (log2)
system.mem_ctrls.readPktSize::1                     0                       # Read request sizes (log2)
system.mem_ctrls.readPktSize::2                     0                       # Read request sizes (log2)
system.mem_ctrls.readPktSize::3                     0                       # Read request sizes (log2)
system.mem_ctrls.readPktSize::4                     0                       # Read request sizes (log2)
system.mem_ctrls.readPktSize::5                     0                       # Read request sizes (log2)
system.mem_ctrls.readPktSize::6                 62476                       # Read request sizes (log2)
system.mem_ctrls.writePktSize::0                    0                       # Write request sizes (log2)
system.mem_ctrls.writePktSize::1                    0                       # Write request sizes (log2)
system.mem_ctrls.writePktSize::2                    0                       # Write request sizes (log2)
system.mem_ctrls.writePktSize::3                    0                       # Write request sizes (log2)
system.mem_ctrls.writePktSize::4                    0                       # Write request sizes (log2)
system.mem_ctrls.writePktSize::5                    0                       # Write request sizes (log2)
system.mem_ctrls.writePktSize::6                 7454                       # Write request sizes (log2)
system.mem_ctrls.rdQLenPdf::0                   20545                       # What read queue length does an incoming req see
system.mem_ctrls.rdQLenPdf::1                   14146                       # What read queue length does an incoming req see
system.mem_ctrls.rdQLenPdf::2                    7176                       # What read queue length does an incoming req see
system.mem_ctrls.rdQLenPdf::3                    4863                       # What read queue length does an incoming req see
system.mem_ctrls.rdQLenPdf::4                    3555                       # What read queue length does an incoming req see
system.mem_ctrls.rdQLenPdf::5                    2909                       # What read queue length does an incoming req see
system.mem_ctrls.rdQLenPdf::6                    2499                       # What read queue length does an incoming req see
system.mem_ctrls.rdQLenPdf::7                    2190                       # What read queue length does an incoming req see
system.mem_ctrls.rdQLenPdf::8                    1904                       # What read queue length does an incoming req see
system.mem_ctrls.rdQLenPdf::9                     981                       # What read queue length does an incoming req see
system.mem_ctrls.rdQLenPdf::10                    584                       # What read queue length does an incoming req see
system.mem_ctrls.rdQLenPdf::11                    433                       # What read queue length does an incoming req see
system.mem_ctrls.rdQLenPdf::12                    228                       # What read queue length does an incoming req see
system.mem_ctrls.rdQLenPdf::13                    149                       # What read queue length does an incoming req see
system.mem_ctrls.rdQLenPdf::14                     96                       # What read queue length does an incoming req see
system.mem_ctrls.rdQLenPdf::15                     63                       # What read queue length does an incoming req see
system.mem_ctrls.rdQLenPdf::16                      0                       # What read queue length does an incoming req see
system.mem_ctrls.rdQLenPdf::17                      0                       # What read queue length does an incoming req see
system.mem_ctrls.rdQLenPdf::18                      0                       # What read queue length does an incoming req see
system.mem_ctrls.rdQLenPdf::19                      0                       # What read queue length does an incoming req see
system.mem_ctrls.rdQLenPdf::20                      0                       # What read queue length does an incoming req see
system.mem_ctrls.rdQLenPdf::21                      0                       # What read queue length does an incoming req see
system.mem_ctrls.rdQLenPdf::22                      0                       # What read queue length does an incoming req see
system.mem_ctrls.rdQLenPdf::23                      0                       # What read queue length does an incoming req see
system.mem_ctrls.rdQLenPdf::24                      0                       # What read queue length does an incoming req see
system.mem_ctrls.rdQLenPdf::25                      0                       # What read queue length does an incoming req see
system.mem_ctrls.rdQLenPdf::26                      0                       # What read queue length does an incoming req see
system.mem_ctrls.rdQLenPdf::27                      0                       # What read queue length does an incoming req see
system.mem_ctrls.rdQLenPdf::28                      0                       # What read queue length does an incoming req see
system.mem_ctrls.rdQLenPdf::29                      0                       # What read queue length does an incoming req see
system.mem_ctrls.rdQLenPdf::30                      0                       # What read queue length does an incoming req see
system.mem_ctrls.rdQLenPdf::31                      0                       # What read queue length does an incoming req see
system.mem_ctrls.wrQLenPdf::0                       1                       # What write queue length does an incoming req see
system.mem_ctrls.wrQLenPdf::1                       1                       # What write queue length does an incoming req see
system.mem_ctrls.wrQLenPdf::2                       1                       # What write queue length does an incoming req see
system.mem_ctrls.wrQLenPdf::3                       1                       # What write queue length does an incoming req see
system.mem_ctrls.wrQLenPdf::4                       1                       # What write queue length does an incoming req see
system.mem_ctrls.wrQLenPdf::5                       1                       # What write queue length does an incoming req see
system.mem_ctrls.wrQLenPdf::6                       1                       # What write queue length does an incoming req see
system.mem_ctrls.wrQLenPdf::7                       1                       # What write queue length does an incoming req see
system.mem_ctrls.wrQLenPdf::8                       1                       # What write queue length does an incoming req see
system.mem_ctrls.wrQLenPdf::9                       1                       # What write queue length does an incoming req see
system.mem_ctrls.wrQLenPdf::10                      1                       # What write queue length does an incoming req see
system.mem_ctrls.wrQLenPdf::11                      1                       # What write queue length does an incoming req see
system.mem_ctrls.wrQLenPdf::12                      1                       # What write queue length does an incoming req see
system.mem_ctrls.wrQLenPdf::13                      1                       # What write queue length does an incoming req see
system.mem_ctrls.wrQLenPdf::14                      1                       # What write queue length does an incoming req see
system.mem_ctrls.wrQLenPdf::15                    154                       # What write queue length does an incoming req see
system.mem_ctrls.wrQLenPdf::16                    163                       # What write queue length does an incoming req see
system.mem_ctrls.wrQLenPdf::17                    328                       # What write queue length does an incoming req see
system.mem_ctrls.wrQLenPdf::18                    407                       # What write queue length does an incoming req see
system.mem_ctrls.wrQLenPdf::19                    431                       # What write queue length does an incoming req see
system.mem_ctrls.wrQLenPdf::20                    441                       # What write queue length does an incoming req see
system.mem_ctrls.wrQLenPdf::21                    448                       # What write queue length does an incoming req see
system.mem_ctrls.wrQLenPdf::22                    454                       # What write queue length does an incoming req see
system.mem_ctrls.wrQLenPdf::23                    458                       # What write queue length does an incoming req see
system.mem_ctrls.wrQLenPdf::24                    461                       # What write queue length does an incoming req see
system.mem_ctrls.wrQLenPdf::25                    469                       # What write queue length does an incoming req see
system.mem_ctrls.wrQLenPdf::26                    474                       # What write queue length does an incoming req see
system.mem_ctrls.wrQLenPdf::27                    467                       # What write queue length does an incoming req see
system.mem_ctrls.wrQLenPdf::28                    469                       # What write queue length does an incoming req see
system.mem_ctrls.wrQLenPdf::29                    453                       # What write queue length does an incoming req see
system.mem_ctrls.wrQLenPdf::30                    456                       # What write queue length does an incoming req see
system.mem_ctrls.wrQLenPdf::31                    454                       # What write queue length does an incoming req see
system.mem_ctrls.wrQLenPdf::32                    445                       # What write queue length does an incoming req see
system.mem_ctrls.wrQLenPdf::33                      4                       # What write queue length does an incoming req see
system.mem_ctrls.wrQLenPdf::34                      2                       # What write queue length does an incoming req see
system.mem_ctrls.wrQLenPdf::35                      0                       # What write queue length does an incoming req see
system.mem_ctrls.wrQLenPdf::36                      0                       # What write queue length does an incoming req see
system.mem_ctrls.wrQLenPdf::37                      0                       # What write queue length does an incoming req see
system.mem_ctrls.wrQLenPdf::38                      0                       # What write queue length does an incoming req see
system.mem_ctrls.wrQLenPdf::39                      0                       # What write queue length does an incoming req see
system.mem_ctrls.wrQLenPdf::40                      0                       # What write queue length does an incoming req see
system.mem_ctrls.wrQLenPdf::41                      0                       # What write queue length does an incoming req see
system.mem_ctrls.wrQLenPdf::42                      0                       # What write queue length does an incoming req see
system.mem_ctrls.wrQLenPdf::43                      0                       # What write queue length does an incoming req see
system.mem_ctrls.wrQLenPdf::44                      0                       # What write queue length does an incoming req see
system.mem_ctrls.wrQLenPdf::45                      0                       # What write queue length does an incoming req see
system.mem_ctrls.wrQLenPdf::46                      0                       # What write queue length does an incoming req see
system.mem_ctrls.wrQLenPdf::47                      0                       # What write queue length does an incoming req see
system.mem_ctrls.wrQLenPdf::48                      0                       # What write queue length does an incoming req see
system.mem_ctrls.wrQLenPdf::49                      0                       # What write queue length does an incoming req see
system.mem_ctrls.wrQLenPdf::50                      0                       # What write queue length does an incoming req see
system.mem_ctrls.wrQLenPdf::51                      0                       # What write queue length does an incoming req see
system.mem_ctrls.wrQLenPdf::52                      0                       # What write queue length does an incoming req see
system.mem_ctrls.wrQLenPdf::53                      0                       # What write queue length does an incoming req see
system.mem_ctrls.wrQLenPdf::54                      0                       # What write queue length does an incoming req see
system.mem_ctrls.wrQLenPdf::55                      0                       # What write queue length does an incoming req see
system.mem_ctrls.wrQLenPdf::56                      0                       # What write queue length does an incoming req see
system.mem_ctrls.wrQLenPdf::57                      0                       # What write queue length does an incoming req see
system.mem_ctrls.wrQLenPdf::58                      0                       # What write queue length does an incoming req see
system.mem_ctrls.wrQLenPdf::59                      0                       # What write queue length does an incoming req see
system.mem_ctrls.wrQLenPdf::60                      0                       # What write queue length does an incoming req see
system.mem_ctrls.wrQLenPdf::61                      0                       # What write queue length does an incoming req see
system.mem_ctrls.wrQLenPdf::62                      0                       # What write queue length does an incoming req see
system.mem_ctrls.wrQLenPdf::63                      0                       # What write queue length does an incoming req see
system.mem_ctrls.bytesPerActivate::samples        21140                       # Bytes accessed per row activation
system.mem_ctrls.bytesPerActivate::mean    211.042573                       # Bytes accessed per row activation
system.mem_ctrls.bytesPerActivate::gmean   129.060911                       # Bytes accessed per row activation
system.mem_ctrls.bytesPerActivate::stdev   258.786284                       # Bytes accessed per row activation
system.mem_ctrls.bytesPerActivate::0-127        10963     51.86%     51.86% # Bytes accessed per row activation
system.mem_ctrls.bytesPerActivate::128-255         5126     24.25%     76.11% # Bytes accessed per row activation
system.mem_ctrls.bytesPerActivate::256-383         1468      6.94%     83.05% # Bytes accessed per row activation
system.mem_ctrls.bytesPerActivate::384-511          712      3.37%     86.42% # Bytes accessed per row activation
system.mem_ctrls.bytesPerActivate::512-639          753      3.56%     89.98% # Bytes accessed per row activation
system.mem_ctrls.bytesPerActivate::640-767          570      2.70%     92.68% # Bytes accessed per row activation
system.mem_ctrls.bytesPerActivate::768-895          260      1.23%     93.91% # Bytes accessed per row activation
system.mem_ctrls.bytesPerActivate::896-1023          186      0.88%     94.79% # Bytes accessed per row activation
system.mem_ctrls.bytesPerActivate::1024-1151         1102      5.21%    100.00% # Bytes accessed per row activation
system.mem_ctrls.bytesPerActivate::total        21140                       # Bytes accessed per row activation
system.mem_ctrls.rdPerTurnAround::samples          441                       # Reads before turning the bus around for writes
system.mem_ctrls.rdPerTurnAround::mean     141.226757                       # Reads before turning the bus around for writes
system.mem_ctrls.rdPerTurnAround::gmean     81.851125                       # Reads before turning the bus around for writes
system.mem_ctrls.rdPerTurnAround::stdev    918.942942                       # Reads before turning the bus around for writes
system.mem_ctrls.rdPerTurnAround::0-1023          439     99.55%     99.55% # Reads before turning the bus around for writes
system.mem_ctrls.rdPerTurnAround::1024-2047            1      0.23%     99.77% # Reads before turning the bus around for writes
system.mem_ctrls.rdPerTurnAround::18432-19455            1      0.23%    100.00% # Reads before turning the bus around for writes
system.mem_ctrls.rdPerTurnAround::total           441                       # Reads before turning the bus around for writes
system.mem_ctrls.wrPerTurnAround::samples          441                       # Writes before turning the bus around for reads
system.mem_ctrls.wrPerTurnAround::mean      16.843537                       # Writes before turning the bus around for reads
system.mem_ctrls.wrPerTurnAround::gmean     16.803337                       # Writes before turning the bus around for reads
system.mem_ctrls.wrPerTurnAround::stdev      1.192976                       # Writes before turning the bus around for reads
system.mem_ctrls.wrPerTurnAround::16              278     63.04%     63.04% # Writes before turning the bus around for reads
system.mem_ctrls.wrPerTurnAround::17                8      1.81%     64.85% # Writes before turning the bus around for reads
system.mem_ctrls.wrPerTurnAround::18              118     26.76%     91.61% # Writes before turning the bus around for reads
system.mem_ctrls.wrPerTurnAround::19               23      5.22%     96.83% # Writes before turning the bus around for reads
system.mem_ctrls.wrPerTurnAround::20               12      2.72%     99.55% # Writes before turning the bus around for reads
system.mem_ctrls.wrPerTurnAround::21                1      0.23%     99.77% # Writes before turning the bus around for reads
system.mem_ctrls.wrPerTurnAround::22                1      0.23%    100.00% # Writes before turning the bus around for reads
system.mem_ctrls.wrPerTurnAround::total           441                       # Writes before turning the bus around for reads
system.mem_ctrls.totQLat                   1614278272                       # Total ticks spent queuing
system.mem_ctrls.totMemAccLat              2782797022                       # Total ticks spent from burst creation until serviced by the DRAM
system.mem_ctrls.totBusLat                  311605000                       # Total ticks spent in databus transfers
system.mem_ctrls.avgQLat                     25902.64                       # Average queueing delay per DRAM burst
system.mem_ctrls.avgBusLat                    5000.00                       # Average bus latency per DRAM burst
system.mem_ctrls.avgMemAccLat                44652.64                       # Average memory access latency per DRAM burst
system.mem_ctrls.avgRdBW                       765.07                       # Average DRAM read bandwidth in MiByte/s
system.mem_ctrls.avgWrBW                        91.19                       # Average achieved write bandwidth in MiByte/s
system.mem_ctrls.avgRdBWSys                    766.98                       # Average system read bandwidth in MiByte/s
system.mem_ctrls.avgWrBWSys                     91.51                       # Average system write bandwidth in MiByte/s
system.mem_ctrls.peakBW                      12800.00                       # Theoretical peak bandwidth in MiByte/s
system.mem_ctrls.busUtil                         6.69                       # Data bus utilization in percentage
system.mem_ctrls.busUtilRead                     5.98                       # Data bus utilization in percentage for reads
system.mem_ctrls.busUtilWrite                    0.71                       # Data bus utilization in percentage for writes
system.mem_ctrls.avgRdQLen                       2.12                       # Average read queue length when enqueuing
system.mem_ctrls.avgWrQLen                      21.80                       # Average write queue length when enqueuing
system.mem_ctrls.readRowHits                    46066                       # Number of row buffer hits during reads
system.mem_ctrls.writeRowHits                    2534                       # Number of row buffer hits during writes
system.mem_ctrls.readRowHitRate                 73.92                       # Row buffer hit rate for reads
system.mem_ctrls.writeRowHitRate                34.00                       # Row buffer hit rate for writes
system.mem_ctrls.avgGap                      74525.07                       # Average gap between requests
system.mem_ctrls.pageHitRate                    69.65                       # Row buffer hit rate, read and write combined
system.mem_ctrls.memoryStateTime::IDLE      177335752                       # Time in different power states
system.mem_ctrls.memoryStateTime::REF       173940000                       # Time in different power states
system.mem_ctrls.memoryStateTime::PRE_PDN            0                       # Time in different power states
system.mem_ctrls.memoryStateTime::ACT      4858026748                       # Time in different power states
system.mem_ctrls.memoryStateTime::ACT_PDN            0                       # Time in different power states
system.mem_ctrls.actEnergy::0                83001240                       # Energy for activate commands per rank (pJ)
system.mem_ctrls.actEnergy::1                76711320                       # Energy for activate commands per rank (pJ)
system.mem_ctrls.preEnergy::0                45288375                       # Energy for precharge commands per rank (pJ)
system.mem_ctrls.preEnergy::1                41856375                       # Energy for precharge commands per rank (pJ)
system.mem_ctrls.readEnergy::0              249319200                       # Energy for read commands per rank (pJ)
system.mem_ctrls.readEnergy::1              236402400                       # Energy for read commands per rank (pJ)
system.mem_ctrls.writeEnergy::0              25181280                       # Energy for write commands per rank (pJ)
system.mem_ctrls.writeEnergy::1              22848480                       # Energy for write commands per rank (pJ)
system.mem_ctrls.refreshEnergy::0           340226640                       # Energy for refresh commands per rank (pJ)
system.mem_ctrls.refreshEnergy::1           340226640                       # Energy for refresh commands per rank (pJ)
system.mem_ctrls.actBackEnergy::0          3223933110                       # Energy for active background per rank (pJ)
system.mem_ctrls.actBackEnergy::1          3171599415                       # Energy for active background per rank (pJ)
system.mem_ctrls.preBackEnergy::0           297561750                       # Energy for precharge background per rank (pJ)
system.mem_ctrls.preBackEnergy::1           343468500                       # Energy for precharge background per rank (pJ)
system.mem_ctrls.totalEnergy::0            4264511595                       # Total energy per rank (pJ)
system.mem_ctrls.totalEnergy::1            4233113130                       # Total energy per rank (pJ)
system.mem_ctrls.averagePower::0           818.636056                       # Core power per rank (mW)
system.mem_ctrls.averagePower::1           812.608656                       # Core power per rank (mW)
system.cpu_voltage_domain.voltage                   1                       # Voltage in Volts
system.cpu_clk_domain.clock                       500                       # Clock period in ticks
system.tol2bus.trans_dist::ReadReq             323702                       # Transaction distribution
system.tol2bus.trans_dist::ReadResp            323702                       # Transaction distribution
system.tol2bus.trans_dist::WriteReq               167                       # Transaction distribution
system.tol2bus.trans_dist::WriteResp              167                       # Transaction distribution
system.tol2bus.trans_dist::Writeback            51676                       # Transaction distribution
system.tol2bus.trans_dist::HardPFReq            97092                       # Transaction distribution
system.tol2bus.trans_dist::UpgradeReq            7358                       # Transaction distribution
system.tol2bus.trans_dist::SCUpgradeReq          2196                       # Transaction distribution
system.tol2bus.trans_dist::UpgradeResp           9554                       # Transaction distribution
system.tol2bus.trans_dist::ReadExReq            34135                       # Transaction distribution
system.tol2bus.trans_dist::ReadExResp           34135                       # Transaction distribution
system.tol2bus.pkt_count_system.cpu0.icache.mem_side::system.l2.cpu_side        20240                       # Packet count per connected master and slave (bytes)
system.tol2bus.pkt_count_system.cpu0.dcache.mem_side::system.l2.cpu_side        20490                       # Packet count per connected master and slave (bytes)
system.tol2bus.pkt_count_system.cpu0.itb.walker.dma::system.l2.cpu_side         2357                       # Packet count per connected master and slave (bytes)
system.tol2bus.pkt_count_system.cpu0.dtb.walker.dma::system.l2.cpu_side         3458                       # Packet count per connected master and slave (bytes)
system.tol2bus.pkt_count_system.cpu1.icache.mem_side::system.l2.cpu_side        36632                       # Packet count per connected master and slave (bytes)
system.tol2bus.pkt_count_system.cpu1.dcache.mem_side::system.l2.cpu_side        18014                       # Packet count per connected master and slave (bytes)
system.tol2bus.pkt_count_system.cpu1.itb.walker.dma::system.l2.cpu_side         3308                       # Packet count per connected master and slave (bytes)
system.tol2bus.pkt_count_system.cpu1.dtb.walker.dma::system.l2.cpu_side         5100                       # Packet count per connected master and slave (bytes)
system.tol2bus.pkt_count_system.cpu2.icache.mem_side::system.l2.cpu_side        14646                       # Packet count per connected master and slave (bytes)
system.tol2bus.pkt_count_system.cpu2.dcache.mem_side::system.l2.cpu_side        10304                       # Packet count per connected master and slave (bytes)
system.tol2bus.pkt_count_system.cpu2.itb.walker.dma::system.l2.cpu_side         2144                       # Packet count per connected master and slave (bytes)
system.tol2bus.pkt_count_system.cpu2.dtb.walker.dma::system.l2.cpu_side         2895                       # Packet count per connected master and slave (bytes)
system.tol2bus.pkt_count_system.cpu3.icache.mem_side::system.l2.cpu_side        22162                       # Packet count per connected master and slave (bytes)
system.tol2bus.pkt_count_system.cpu3.dcache.mem_side::system.l2.cpu_side        19427                       # Packet count per connected master and slave (bytes)
system.tol2bus.pkt_count_system.cpu3.itb.walker.dma::system.l2.cpu_side         2725                       # Packet count per connected master and slave (bytes)
system.tol2bus.pkt_count_system.cpu3.dtb.walker.dma::system.l2.cpu_side         4335                       # Packet count per connected master and slave (bytes)
system.tol2bus.pkt_count_system.cpu4.icache.mem_side::system.l2.cpu_side        21769                       # Packet count per connected master and slave (bytes)
system.tol2bus.pkt_count_system.cpu4.dcache.mem_side::system.l2.cpu_side        15999                       # Packet count per connected master and slave (bytes)
system.tol2bus.pkt_count_system.cpu4.itb.walker.dma::system.l2.cpu_side         2616                       # Packet count per connected master and slave (bytes)
system.tol2bus.pkt_count_system.cpu4.dtb.walker.dma::system.l2.cpu_side         4056                       # Packet count per connected master and slave (bytes)
system.tol2bus.pkt_count_system.cpu5.icache.mem_side::system.l2.cpu_side       236530                       # Packet count per connected master and slave (bytes)
system.tol2bus.pkt_count_system.cpu5.dcache.mem_side::system.l2.cpu_side       190144                       # Packet count per connected master and slave (bytes)
system.tol2bus.pkt_count_system.cpu5.itb.walker.dma::system.l2.cpu_side         6852                       # Packet count per connected master and slave (bytes)
system.tol2bus.pkt_count_system.cpu5.dtb.walker.dma::system.l2.cpu_side        29306                       # Packet count per connected master and slave (bytes)
system.tol2bus.pkt_count_system.cpu6.icache.mem_side::system.l2.cpu_side        12812                       # Packet count per connected master and slave (bytes)
system.tol2bus.pkt_count_system.cpu6.dcache.mem_side::system.l2.cpu_side        10186                       # Packet count per connected master and slave (bytes)
system.tol2bus.pkt_count_system.cpu6.itb.walker.dma::system.l2.cpu_side         2040                       # Packet count per connected master and slave (bytes)
system.tol2bus.pkt_count_system.cpu6.dtb.walker.dma::system.l2.cpu_side         2822                       # Packet count per connected master and slave (bytes)
system.tol2bus.pkt_count_system.cpu7.icache.mem_side::system.l2.cpu_side        15406                       # Packet count per connected master and slave (bytes)
system.tol2bus.pkt_count_system.cpu7.dcache.mem_side::system.l2.cpu_side         9953                       # Packet count per connected master and slave (bytes)
system.tol2bus.pkt_count_system.cpu7.itb.walker.dma::system.l2.cpu_side         2222                       # Packet count per connected master and slave (bytes)
system.tol2bus.pkt_count_system.cpu7.dtb.walker.dma::system.l2.cpu_side         2998                       # Packet count per connected master and slave (bytes)
system.tol2bus.pkt_count::total                753948                       # Packet count per connected master and slave (bytes)
system.tol2bus.pkt_size_system.cpu0.icache.mem_side::system.l2.cpu_side       647680                       # Cumulative packet size per connected master and slave (bytes)
system.tol2bus.pkt_size_system.cpu0.dcache.mem_side::system.l2.cpu_side       690266                       # Cumulative packet size per connected master and slave (bytes)
system.tol2bus.pkt_size_system.cpu0.itb.walker.dma::system.l2.cpu_side         3156                       # Cumulative packet size per connected master and slave (bytes)
system.tol2bus.pkt_size_system.cpu0.dtb.walker.dma::system.l2.cpu_side         3656                       # Cumulative packet size per connected master and slave (bytes)
system.tol2bus.pkt_size_system.cpu1.icache.mem_side::system.l2.cpu_side      1172224                       # Cumulative packet size per connected master and slave (bytes)
system.tol2bus.pkt_size_system.cpu1.dcache.mem_side::system.l2.cpu_side       567540                       # Cumulative packet size per connected master and slave (bytes)
system.tol2bus.pkt_size_system.cpu1.itb.walker.dma::system.l2.cpu_side         6616                       # Cumulative packet size per connected master and slave (bytes)
system.tol2bus.pkt_size_system.cpu1.dtb.walker.dma::system.l2.cpu_side        10084                       # Cumulative packet size per connected master and slave (bytes)
system.tol2bus.pkt_size_system.cpu2.icache.mem_side::system.l2.cpu_side       468672                       # Cumulative packet size per connected master and slave (bytes)
system.tol2bus.pkt_size_system.cpu2.dcache.mem_side::system.l2.cpu_side       260316                       # Cumulative packet size per connected master and slave (bytes)
system.tol2bus.pkt_size_system.cpu2.itb.walker.dma::system.l2.cpu_side         4288                       # Cumulative packet size per connected master and slave (bytes)
system.tol2bus.pkt_size_system.cpu2.dtb.walker.dma::system.l2.cpu_side         5732                       # Cumulative packet size per connected master and slave (bytes)
system.tol2bus.pkt_size_system.cpu3.icache.mem_side::system.l2.cpu_side       709184                       # Cumulative packet size per connected master and slave (bytes)
system.tol2bus.pkt_size_system.cpu3.dcache.mem_side::system.l2.cpu_side       632892                       # Cumulative packet size per connected master and slave (bytes)
system.tol2bus.pkt_size_system.cpu3.itb.walker.dma::system.l2.cpu_side         5436                       # Cumulative packet size per connected master and slave (bytes)
system.tol2bus.pkt_size_system.cpu3.dtb.walker.dma::system.l2.cpu_side         8496                       # Cumulative packet size per connected master and slave (bytes)
system.tol2bus.pkt_size_system.cpu4.icache.mem_side::system.l2.cpu_side       696512                       # Cumulative packet size per connected master and slave (bytes)
system.tol2bus.pkt_size_system.cpu4.dcache.mem_side::system.l2.cpu_side       480656                       # Cumulative packet size per connected master and slave (bytes)
system.tol2bus.pkt_size_system.cpu4.itb.walker.dma::system.l2.cpu_side         4676                       # Cumulative packet size per connected master and slave (bytes)
system.tol2bus.pkt_size_system.cpu4.dtb.walker.dma::system.l2.cpu_side         6608                       # Cumulative packet size per connected master and slave (bytes)
system.tol2bus.pkt_size_system.cpu5.icache.mem_side::system.l2.cpu_side      7568832                       # Cumulative packet size per connected master and slave (bytes)
system.tol2bus.pkt_size_system.cpu5.dcache.mem_side::system.l2.cpu_side      7156232                       # Cumulative packet size per connected master and slave (bytes)
system.tol2bus.pkt_size_system.cpu5.itb.walker.dma::system.l2.cpu_side        10116                       # Cumulative packet size per connected master and slave (bytes)
system.tol2bus.pkt_size_system.cpu5.dtb.walker.dma::system.l2.cpu_side        44196                       # Cumulative packet size per connected master and slave (bytes)
system.tol2bus.pkt_size_system.cpu6.icache.mem_side::system.l2.cpu_side       409984                       # Cumulative packet size per connected master and slave (bytes)
system.tol2bus.pkt_size_system.cpu6.dcache.mem_side::system.l2.cpu_side       256988                       # Cumulative packet size per connected master and slave (bytes)
system.tol2bus.pkt_size_system.cpu6.itb.walker.dma::system.l2.cpu_side         4080                       # Cumulative packet size per connected master and slave (bytes)
system.tol2bus.pkt_size_system.cpu6.dtb.walker.dma::system.l2.cpu_side         5644                       # Cumulative packet size per connected master and slave (bytes)
system.tol2bus.pkt_size_system.cpu7.icache.mem_side::system.l2.cpu_side       492992                       # Cumulative packet size per connected master and slave (bytes)
system.tol2bus.pkt_size_system.cpu7.dcache.mem_side::system.l2.cpu_side       261404                       # Cumulative packet size per connected master and slave (bytes)
system.tol2bus.pkt_size_system.cpu7.itb.walker.dma::system.l2.cpu_side         4444                       # Cumulative packet size per connected master and slave (bytes)
system.tol2bus.pkt_size_system.cpu7.dtb.walker.dma::system.l2.cpu_side         5896                       # Cumulative packet size per connected master and slave (bytes)
system.tol2bus.pkt_size::total               22605498                       # Cumulative packet size per connected master and slave (bytes)
system.tol2bus.snoops                          129936                       # Total snoops (count)
system.tol2bus.snoop_fanout::samples           516524                       # Request fanout histogram
system.tol2bus.snoop_fanout::mean           47.187972                       # Request fanout histogram
system.tol2bus.snoop_fanout::stdev           0.390690                       # Request fanout histogram
system.tol2bus.snoop_fanout::underflows             0      0.00%      0.00% # Request fanout histogram
system.tol2bus.snoop_fanout::0                      0      0.00%      0.00% # Request fanout histogram
system.tol2bus.snoop_fanout::1                      0      0.00%      0.00% # Request fanout histogram
system.tol2bus.snoop_fanout::2                      0      0.00%      0.00% # Request fanout histogram
system.tol2bus.snoop_fanout::3                      0      0.00%      0.00% # Request fanout histogram
system.tol2bus.snoop_fanout::4                      0      0.00%      0.00% # Request fanout histogram
system.tol2bus.snoop_fanout::5                      0      0.00%      0.00% # Request fanout histogram
system.tol2bus.snoop_fanout::6                      0      0.00%      0.00% # Request fanout histogram
system.tol2bus.snoop_fanout::7                      0      0.00%      0.00% # Request fanout histogram
system.tol2bus.snoop_fanout::8                      0      0.00%      0.00% # Request fanout histogram
system.tol2bus.snoop_fanout::9                      0      0.00%      0.00% # Request fanout histogram
system.tol2bus.snoop_fanout::10                     0      0.00%      0.00% # Request fanout histogram
system.tol2bus.snoop_fanout::11                     0      0.00%      0.00% # Request fanout histogram
system.tol2bus.snoop_fanout::12                     0      0.00%      0.00% # Request fanout histogram
system.tol2bus.snoop_fanout::13                     0      0.00%      0.00% # Request fanout histogram
system.tol2bus.snoop_fanout::14                     0      0.00%      0.00% # Request fanout histogram
system.tol2bus.snoop_fanout::15                     0      0.00%      0.00% # Request fanout histogram
system.tol2bus.snoop_fanout::16                     0      0.00%      0.00% # Request fanout histogram
system.tol2bus.snoop_fanout::17                     0      0.00%      0.00% # Request fanout histogram
system.tol2bus.snoop_fanout::18                     0      0.00%      0.00% # Request fanout histogram
system.tol2bus.snoop_fanout::19                     0      0.00%      0.00% # Request fanout histogram
system.tol2bus.snoop_fanout::20                     0      0.00%      0.00% # Request fanout histogram
system.tol2bus.snoop_fanout::21                     0      0.00%      0.00% # Request fanout histogram
system.tol2bus.snoop_fanout::22                     0      0.00%      0.00% # Request fanout histogram
system.tol2bus.snoop_fanout::23                     0      0.00%      0.00% # Request fanout histogram
system.tol2bus.snoop_fanout::24                     0      0.00%      0.00% # Request fanout histogram
system.tol2bus.snoop_fanout::25                     0      0.00%      0.00% # Request fanout histogram
system.tol2bus.snoop_fanout::26                     0      0.00%      0.00% # Request fanout histogram
system.tol2bus.snoop_fanout::27                     0      0.00%      0.00% # Request fanout histogram
system.tol2bus.snoop_fanout::28                     0      0.00%      0.00% # Request fanout histogram
system.tol2bus.snoop_fanout::29                     0      0.00%      0.00% # Request fanout histogram
system.tol2bus.snoop_fanout::30                     0      0.00%      0.00% # Request fanout histogram
system.tol2bus.snoop_fanout::31                     0      0.00%      0.00% # Request fanout histogram
system.tol2bus.snoop_fanout::32                     0      0.00%      0.00% # Request fanout histogram
system.tol2bus.snoop_fanout::33                     0      0.00%      0.00% # Request fanout histogram
system.tol2bus.snoop_fanout::34                     0      0.00%      0.00% # Request fanout histogram
system.tol2bus.snoop_fanout::35                     0      0.00%      0.00% # Request fanout histogram
system.tol2bus.snoop_fanout::36                     0      0.00%      0.00% # Request fanout histogram
system.tol2bus.snoop_fanout::37                     0      0.00%      0.00% # Request fanout histogram
system.tol2bus.snoop_fanout::38                     0      0.00%      0.00% # Request fanout histogram
system.tol2bus.snoop_fanout::39                     0      0.00%      0.00% # Request fanout histogram
system.tol2bus.snoop_fanout::40                     0      0.00%      0.00% # Request fanout histogram
system.tol2bus.snoop_fanout::41                     0      0.00%      0.00% # Request fanout histogram
system.tol2bus.snoop_fanout::42                     0      0.00%      0.00% # Request fanout histogram
system.tol2bus.snoop_fanout::43                     0      0.00%      0.00% # Request fanout histogram
system.tol2bus.snoop_fanout::44                     0      0.00%      0.00% # Request fanout histogram
system.tol2bus.snoop_fanout::45                     0      0.00%      0.00% # Request fanout histogram
system.tol2bus.snoop_fanout::46                     0      0.00%      0.00% # Request fanout histogram
system.tol2bus.snoop_fanout::47                419432     81.20%     81.20% # Request fanout histogram
system.tol2bus.snoop_fanout::48                 97092     18.80%    100.00% # Request fanout histogram
system.tol2bus.snoop_fanout::overflows              0      0.00%    100.00% # Request fanout histogram
system.tol2bus.snoop_fanout::min_value             47                       # Request fanout histogram
system.tol2bus.snoop_fanout::max_value             48                       # Request fanout histogram
system.tol2bus.snoop_fanout::total             516524                       # Request fanout histogram
system.tol2bus.reqLayer0.occupancy          261941843                       # Layer occupancy (ticks)
system.tol2bus.reqLayer0.utilization              5.0                       # Layer utilization (%)
system.tol2bus.respLayer0.occupancy          15239202                       # Layer occupancy (ticks)
system.tol2bus.respLayer0.utilization             0.3                       # Layer utilization (%)
system.tol2bus.respLayer1.occupancy          13388224                       # Layer occupancy (ticks)
system.tol2bus.respLayer1.utilization             0.3                       # Layer utilization (%)
system.tol2bus.respLayer2.occupancy           1573246                       # Layer occupancy (ticks)
system.tol2bus.respLayer2.utilization             0.0                       # Layer utilization (%)
system.tol2bus.respLayer3.occupancy           2550742                       # Layer occupancy (ticks)
system.tol2bus.respLayer3.utilization             0.0                       # Layer utilization (%)
system.tol2bus.respLayer6.occupancy          27562957                       # Layer occupancy (ticks)
system.tol2bus.respLayer6.utilization             0.5                       # Layer utilization (%)
system.tol2bus.respLayer7.occupancy          12735006                       # Layer occupancy (ticks)
system.tol2bus.respLayer7.utilization             0.2                       # Layer utilization (%)
system.tol2bus.respLayer8.occupancy           1662738                       # Layer occupancy (ticks)
system.tol2bus.respLayer8.utilization             0.0                       # Layer utilization (%)
system.tol2bus.respLayer9.occupancy           2589240                       # Layer occupancy (ticks)
system.tol2bus.respLayer9.utilization             0.0                       # Layer utilization (%)
system.tol2bus.respLayer12.occupancy         11000975                       # Layer occupancy (ticks)
system.tol2bus.respLayer12.utilization            0.2                       # Layer utilization (%)
system.tol2bus.respLayer13.occupancy          8097500                       # Layer occupancy (ticks)
system.tol2bus.respLayer13.utilization            0.2                       # Layer utilization (%)
system.tol2bus.respLayer14.occupancy          1076492                       # Layer occupancy (ticks)
system.tol2bus.respLayer14.utilization            0.0                       # Layer utilization (%)
system.tol2bus.respLayer15.occupancy          1465495                       # Layer occupancy (ticks)
system.tol2bus.respLayer15.utilization            0.0                       # Layer utilization (%)
system.tol2bus.respLayer18.occupancy         16665708                       # Layer occupancy (ticks)
system.tol2bus.respLayer18.utilization            0.3                       # Layer utilization (%)
system.tol2bus.respLayer19.occupancy         13241030                       # Layer occupancy (ticks)
system.tol2bus.respLayer19.utilization            0.3                       # Layer utilization (%)
system.tol2bus.respLayer20.occupancy          1371492                       # Layer occupancy (ticks)
system.tol2bus.respLayer20.utilization            0.0                       # Layer utilization (%)
system.tol2bus.respLayer21.occupancy          2213499                       # Layer occupancy (ticks)
system.tol2bus.respLayer21.utilization            0.0                       # Layer utilization (%)
system.tol2bus.respLayer24.occupancy         16359458                       # Layer occupancy (ticks)
system.tol2bus.respLayer24.utilization            0.3                       # Layer utilization (%)
system.tol2bus.respLayer25.occupancy         11477583                       # Layer occupancy (ticks)
system.tol2bus.respLayer25.utilization            0.2                       # Layer utilization (%)
system.tol2bus.respLayer26.occupancy          1452241                       # Layer occupancy (ticks)
system.tol2bus.respLayer26.utilization            0.0                       # Layer utilization (%)
system.tol2bus.respLayer27.occupancy          2409993                       # Layer occupancy (ticks)
system.tol2bus.respLayer27.utilization            0.0                       # Layer utilization (%)
system.tol2bus.respLayer30.occupancy        177783879                       # Layer occupancy (ticks)
system.tol2bus.respLayer30.utilization            3.4                       # Layer utilization (%)
system.tol2bus.respLayer31.occupancy        114999909                       # Layer occupancy (ticks)
system.tol2bus.respLayer31.utilization            2.2                       # Layer utilization (%)
system.tol2bus.respLayer32.occupancy          4327996                       # Layer occupancy (ticks)
system.tol2bus.respLayer32.utilization            0.1                       # Layer utilization (%)
system.tol2bus.respLayer33.occupancy         18277971                       # Layer occupancy (ticks)
system.tol2bus.respLayer33.utilization            0.4                       # Layer utilization (%)
system.tol2bus.respLayer36.occupancy          9621228                       # Layer occupancy (ticks)
system.tol2bus.respLayer36.utilization            0.2                       # Layer utilization (%)
system.tol2bus.respLayer37.occupancy          8022752                       # Layer occupancy (ticks)
system.tol2bus.respLayer37.utilization            0.2                       # Layer utilization (%)
system.tol2bus.respLayer38.occupancy          1021494                       # Layer occupancy (ticks)
system.tol2bus.respLayer38.utilization            0.0                       # Layer utilization (%)
system.tol2bus.respLayer39.occupancy          1417490                       # Layer occupancy (ticks)
system.tol2bus.respLayer39.utilization            0.0                       # Layer utilization (%)
system.tol2bus.respLayer42.occupancy         11573476                       # Layer occupancy (ticks)
system.tol2bus.respLayer42.utilization            0.2                       # Layer utilization (%)
system.tol2bus.respLayer43.occupancy          7646496                       # Layer occupancy (ticks)
system.tol2bus.respLayer43.utilization            0.1                       # Layer utilization (%)
system.tol2bus.respLayer44.occupancy          1115240                       # Layer occupancy (ticks)
system.tol2bus.respLayer44.utilization            0.0                       # Layer utilization (%)
system.tol2bus.respLayer45.occupancy          1527994                       # Layer occupancy (ticks)
system.tol2bus.respLayer45.utilization            0.0                       # Layer utilization (%)
system.membus.trans_dist::ReadReq               60939                       # Transaction distribution
system.membus.trans_dist::ReadResp              60939                       # Transaction distribution
system.membus.trans_dist::WriteReq                167                       # Transaction distribution
system.membus.trans_dist::WriteResp               167                       # Transaction distribution
system.membus.trans_dist::Writeback              7454                       # Transaction distribution
system.membus.trans_dist::UpgradeReq             7551                       # Transaction distribution
system.membus.trans_dist::SCUpgradeReq           2133                       # Transaction distribution
system.membus.trans_dist::UpgradeResp            1858                       # Transaction distribution
system.membus.trans_dist::ReadExReq              1836                       # Transaction distribution
system.membus.trans_dist::ReadExResp             1647                       # Transaction distribution
system.membus.pkt_count_system.l2.mem_side::system.bridge.slave          230                       # Packet count per connected master and slave (bytes)
system.membus.pkt_count_system.l2.mem_side::system.realview.gic.pio          296                       # Packet count per connected master and slave (bytes)
system.membus.pkt_count_system.l2.mem_side::system.mem_ctrls.port       144165                       # Packet count per connected master and slave (bytes)
system.membus.pkt_count_system.l2.mem_side::total       144691                       # Packet count per connected master and slave (bytes)
system.membus.pkt_count::total                 144691                       # Packet count per connected master and slave (bytes)
[...]
system.cpu7.dcache.SoftPFReq_accesses::total          687                       # number of SoftPFReq accesses(hits+misses)
system.cpu7.dcache.LoadLockedReq_accesses::switch_cpus7.data          581                       # number of LoadLockedReq accesses(hits+misses)
system.cpu7.dcache.LoadLockedReq_accesses::total          581                       # number of LoadLockedReq accesses(hits+misses)
system.cpu7.dcache.StoreCondReq_accesses::switch_cpus7.data          573                       # number of StoreCondReq accesses(hits+misses)
system.cpu7.dcache.StoreCondReq_accesses::total          573                       # number of StoreCondReq accesses(hits+misses)
system.cpu7.dcache.demand_accesses::switch_cpus7.data      1970765                       # number of demand (read+write) accesses
system.cpu7.dcache.demand_accesses::total      1970765                       # number of demand (read+write) accesses
system.cpu7.dcache.overall_accesses::switch_cpus7.data      1971452                       # number of overall (read+write) accesses
system.cpu7.dcache.overall_accesses::total      1971452                       # number of overall (read+write) accesses
system.cpu7.dcache.ReadReq_miss_rate::switch_cpus7.data     0.004871                       # miss rate for ReadReq accesses
system.cpu7.dcache.ReadReq_miss_rate::total     0.004871                       # miss rate for ReadReq accesses
system.cpu7.dcache.WriteReq_miss_rate::switch_cpus7.data     0.007643                       # miss rate for WriteReq accesses
system.cpu7.dcache.WriteReq_miss_rate::total     0.007643                       # miss rate for WriteReq accesses
system.cpu7.dcache.SoftPFReq_miss_rate::switch_cpus7.data     0.403202                       # miss rate for SoftPFReq accesses
system.cpu7.dcache.SoftPFReq_miss_rate::total     0.403202                       # miss rate for SoftPFReq accesses
system.cpu7.dcache.LoadLockedReq_miss_rate::switch_cpus7.data     0.437177                       # miss rate for LoadLockedReq accesses
system.cpu7.dcache.LoadLockedReq_miss_rate::total     0.437177                       # miss rate for LoadLockedReq accesses
system.cpu7.dcache.StoreCondReq_miss_rate::switch_cpus7.data     0.452007                       # miss rate for StoreCondReq accesses
system.cpu7.dcache.StoreCondReq_miss_rate::total     0.452007                       # miss rate for StoreCondReq accesses
system.cpu7.dcache.demand_miss_rate::switch_cpus7.data     0.005964                       # miss rate for demand accesses
system.cpu7.dcache.demand_miss_rate::total     0.005964                       # miss rate for demand accesses
system.cpu7.dcache.overall_miss_rate::switch_cpus7.data     0.006103                       # miss rate for overall accesses
system.cpu7.dcache.overall_miss_rate::total     0.006103                       # miss rate for overall accesses
system.cpu7.dcache.ReadReq_avg_miss_latency::switch_cpus7.data 23685.120722                       # average ReadReq miss latency
system.cpu7.dcache.ReadReq_avg_miss_latency::total 23685.120722                       # average ReadReq miss latency
system.cpu7.dcache.WriteReq_avg_miss_latency::switch_cpus7.data 11251.713420                       # average WriteReq miss latency
system.cpu7.dcache.WriteReq_avg_miss_latency::total 11251.713420                       # average WriteReq miss latency
system.cpu7.dcache.LoadLockedReq_avg_miss_latency::switch_cpus7.data  4783.464567                       # average LoadLockedReq miss latency
system.cpu7.dcache.LoadLockedReq_avg_miss_latency::total  4783.464567                       # average LoadLockedReq miss latency
system.cpu7.dcache.StoreCondReq_avg_miss_latency::switch_cpus7.data  4283.795367                       # average StoreCondReq miss latency
system.cpu7.dcache.StoreCondReq_avg_miss_latency::total  4283.795367                       # average StoreCondReq miss latency
system.cpu7.dcache.demand_avg_miss_latency::switch_cpus7.data 17402.833333                       # average overall miss latency
system.cpu7.dcache.demand_avg_miss_latency::total 17402.833333                       # average overall miss latency
system.cpu7.dcache.overall_avg_miss_latency::switch_cpus7.data 17002.153021                       # average overall miss latency
system.cpu7.dcache.overall_avg_miss_latency::total 17002.153021                       # average overall miss latency
system.cpu7.dcache.blocked_cycles::no_mshrs            0                       # number of cycles access was blocked
system.cpu7.dcache.blocked_cycles::no_targets        24607                       # number of cycles access was blocked
system.cpu7.dcache.blocked::no_mshrs                0                       # number of cycles access was blocked
system.cpu7.dcache.blocked::no_targets            634                       # number of cycles access was blocked
system.cpu7.dcache.avg_blocked_cycles::no_mshrs          nan                       # average number of cycles each access was blocked
system.cpu7.dcache.avg_blocked_cycles::no_targets    38.812303                       # average number of cycles each access was blocked
system.cpu7.dcache.fast_writes                      0                       # number of fast writes performed
system.cpu7.dcache.cache_copies                     0                       # number of cache copies performed
system.cpu7.dcache.writebacks::writebacks          894                       # number of writebacks
system.cpu7.dcache.writebacks::total              894                       # number of writebacks
system.cpu7.dcache.ReadReq_mshr_hits::switch_cpus7.data         2376                       # number of ReadReq MSHR hits
system.cpu7.dcache.ReadReq_mshr_hits::total         2376                       # number of ReadReq MSHR hits
system.cpu7.dcache.WriteReq_mshr_hits::switch_cpus7.data         4167                       # number of WriteReq MSHR hits
system.cpu7.dcache.WriteReq_mshr_hits::total         4167                       # number of WriteReq MSHR hits
system.cpu7.dcache.LoadLockedReq_mshr_hits::switch_cpus7.data           15                       # number of LoadLockedReq MSHR hits
system.cpu7.dcache.LoadLockedReq_mshr_hits::total           15                       # number of LoadLockedReq MSHR hits
system.cpu7.dcache.demand_mshr_hits::switch_cpus7.data         6543                       # number of demand (read+write) MSHR hits
system.cpu7.dcache.demand_mshr_hits::total         6543                       # number of demand (read+write) MSHR hits
system.cpu7.dcache.overall_mshr_hits::switch_cpus7.data         6543                       # number of overall MSHR hits
system.cpu7.dcache.overall_mshr_hits::total         6543                       # number of overall MSHR hits
system.cpu7.dcache.ReadReq_mshr_misses::switch_cpus7.data         3439                       # number of ReadReq MSHR misses
system.cpu7.dcache.ReadReq_mshr_misses::total         3439                       # number of ReadReq MSHR misses
system.cpu7.dcache.WriteReq_mshr_misses::switch_cpus7.data         1772                       # number of WriteReq MSHR misses
system.cpu7.dcache.WriteReq_mshr_misses::total         1772                       # number of WriteReq MSHR misses
system.cpu7.dcache.SoftPFReq_mshr_misses::switch_cpus7.data          109                       # number of SoftPFReq MSHR misses
system.cpu7.dcache.SoftPFReq_mshr_misses::total          109                       # number of SoftPFReq MSHR misses
system.cpu7.dcache.LoadLockedReq_mshr_misses::switch_cpus7.data          239                       # number of LoadLockedReq MSHR misses
system.cpu7.dcache.LoadLockedReq_mshr_misses::total          239                       # number of LoadLockedReq MSHR misses
system.cpu7.dcache.StoreCondReq_mshr_misses::switch_cpus7.data          259                       # number of StoreCondReq MSHR misses
system.cpu7.dcache.StoreCondReq_mshr_misses::total          259                       # number of StoreCondReq MSHR misses
system.cpu7.dcache.demand_mshr_misses::switch_cpus7.data         5211                       # number of demand (read+write) MSHR misses
system.cpu7.dcache.demand_mshr_misses::total         5211                       # number of demand (read+write) MSHR misses
system.cpu7.dcache.overall_mshr_misses::switch_cpus7.data         5320                       # number of overall MSHR misses
system.cpu7.dcache.overall_mshr_misses::total         5320                       # number of overall MSHR misses
system.cpu7.dcache.ReadReq_mshr_miss_latency::switch_cpus7.data     42990265                       # number of ReadReq MSHR miss cycles
system.cpu7.dcache.ReadReq_mshr_miss_latency::total     42990265                       # number of ReadReq MSHR miss cycles
system.cpu7.dcache.WriteReq_mshr_miss_latency::switch_cpus7.data     12194241                       # number of WriteReq MSHR miss cycles
system.cpu7.dcache.WriteReq_mshr_miss_latency::total     12194241                       # number of WriteReq MSHR miss cycles
system.cpu7.dcache.SoftPFReq_mshr_miss_latency::switch_cpus7.data      5363501                       # number of SoftPFReq MSHR miss cycles
system.cpu7.dcache.SoftPFReq_mshr_miss_latency::total      5363501                       # number of SoftPFReq MSHR miss cycles
system.cpu7.dcache.LoadLockedReq_mshr_miss_latency::switch_cpus7.data       495000                       # number of LoadLockedReq MSHR miss cycles
system.cpu7.dcache.LoadLockedReq_mshr_miss_latency::total       495000                       # number of LoadLockedReq MSHR miss cycles
system.cpu7.dcache.StoreCondReq_mshr_miss_latency::switch_cpus7.data       591497                       # number of StoreCondReq MSHR miss cycles
system.cpu7.dcache.StoreCondReq_mshr_miss_latency::total       591497                       # number of StoreCondReq MSHR miss cycles
system.cpu7.dcache.demand_mshr_miss_latency::switch_cpus7.data     55184506                       # number of demand (read+write) MSHR miss cycles
system.cpu7.dcache.demand_mshr_miss_latency::total     55184506                       # number of demand (read+write) MSHR miss cycles
system.cpu7.dcache.overall_mshr_miss_latency::switch_cpus7.data     60548007                       # number of overall MSHR miss cycles
system.cpu7.dcache.overall_mshr_miss_latency::total     60548007                       # number of overall MSHR miss cycles
system.cpu7.dcache.ReadReq_mshr_uncacheable_latency::switch_cpus7.data       101500                       # number of ReadReq MSHR uncacheable cycles
system.cpu7.dcache.ReadReq_mshr_uncacheable_latency::total       101500                       # number of ReadReq MSHR uncacheable cycles
system.cpu7.dcache.WriteReq_mshr_uncacheable_latency::switch_cpus7.data        77500                       # number of WriteReq MSHR uncacheable cycles
system.cpu7.dcache.WriteReq_mshr_uncacheable_latency::total        77500                       # number of WriteReq MSHR uncacheable cycles
system.cpu7.dcache.overall_mshr_uncacheable_latency::switch_cpus7.data       179000                       # number of overall MSHR uncacheable cycles
system.cpu7.dcache.overall_mshr_uncacheable_latency::total       179000                       # number of overall MSHR uncacheable cycles
system.cpu7.dcache.ReadReq_mshr_miss_rate::switch_cpus7.data     0.002881                       # mshr miss rate for ReadReq accesses
system.cpu7.dcache.ReadReq_mshr_miss_rate::total     0.002881                       # mshr miss rate for ReadReq accesses
system.cpu7.dcache.WriteReq_mshr_miss_rate::switch_cpus7.data     0.002280                       # mshr miss rate for WriteReq accesses
system.cpu7.dcache.WriteReq_mshr_miss_rate::total     0.002280                       # mshr miss rate for WriteReq accesses
system.cpu7.dcache.SoftPFReq_mshr_miss_rate::switch_cpus7.data     0.158661                       # mshr miss rate for SoftPFReq accesses
system.cpu7.dcache.SoftPFReq_mshr_miss_rate::total     0.158661                       # mshr miss rate for SoftPFReq accesses
system.cpu7.dcache.LoadLockedReq_mshr_miss_rate::switch_cpus7.data     0.411360                       # mshr miss rate for LoadLockedReq accesses
system.cpu7.dcache.LoadLockedReq_mshr_miss_rate::total     0.411360                       # mshr miss rate for LoadLockedReq accesses
system.cpu7.dcache.StoreCondReq_mshr_miss_rate::switch_cpus7.data     0.452007                       # mshr miss rate for StoreCondReq accesses
system.cpu7.dcache.StoreCondReq_mshr_miss_rate::total     0.452007                       # mshr miss rate for StoreCondReq accesses
system.cpu7.dcache.demand_mshr_miss_rate::switch_cpus7.data     0.002644                       # mshr miss rate for demand accesses
system.cpu7.dcache.demand_mshr_miss_rate::total     0.002644                       # mshr miss rate for demand accesses
system.cpu7.dcache.overall_mshr_miss_rate::switch_cpus7.data     0.002699                       # mshr miss rate for overall accesses
system.cpu7.dcache.overall_mshr_miss_rate::total     0.002699                       # mshr miss rate for overall accesses
system.cpu7.dcache.ReadReq_avg_mshr_miss_latency::switch_cpus7.data 12500.804013                       # average ReadReq mshr miss latency
system.cpu7.dcache.ReadReq_avg_mshr_miss_latency::total 12500.804013                       # average ReadReq mshr miss latency
system.cpu7.dcache.WriteReq_avg_mshr_miss_latency::switch_cpus7.data  6881.625847                       # average WriteReq mshr miss latency
system.cpu7.dcache.WriteReq_avg_mshr_miss_latency::total  6881.625847                       # average WriteReq mshr miss latency
system.cpu7.dcache.SoftPFReq_avg_mshr_miss_latency::switch_cpus7.data 49206.431193                       # average SoftPFReq mshr miss latency
system.cpu7.dcache.SoftPFReq_avg_mshr_miss_latency::total 49206.431193                       # average SoftPFReq mshr miss latency
system.cpu7.dcache.LoadLockedReq_avg_mshr_miss_latency::switch_cpus7.data  2071.129707                       # average LoadLockedReq mshr miss latency
system.cpu7.dcache.LoadLockedReq_avg_mshr_miss_latency::total  2071.129707                       # average LoadLockedReq mshr miss latency
system.cpu7.dcache.StoreCondReq_avg_mshr_miss_latency::switch_cpus7.data  2283.772201                       # average StoreCondReq mshr miss latency
system.cpu7.dcache.StoreCondReq_avg_mshr_miss_latency::total  2283.772201                       # average StoreCondReq mshr miss latency
system.cpu7.dcache.demand_avg_mshr_miss_latency::switch_cpus7.data 10590.003070                       # average overall mshr miss latency
system.cpu7.dcache.demand_avg_mshr_miss_latency::total 10590.003070                       # average overall mshr miss latency
system.cpu7.dcache.overall_avg_mshr_miss_latency::switch_cpus7.data 11381.204323                       # average overall mshr miss latency
system.cpu7.dcache.overall_avg_mshr_miss_latency::total 11381.204323                       # average overall mshr miss latency
system.cpu7.dcache.ReadReq_avg_mshr_uncacheable_latency::switch_cpus7.data          inf                       # average ReadReq mshr uncacheable latency
system.cpu7.dcache.ReadReq_avg_mshr_uncacheable_latency::total          inf                       # average ReadReq mshr uncacheable latency
system.cpu7.dcache.WriteReq_avg_mshr_uncacheable_latency::switch_cpus7.data          inf                       # average WriteReq mshr uncacheable latency
system.cpu7.dcache.WriteReq_avg_mshr_uncacheable_latency::total          inf                       # average WriteReq mshr uncacheable latency
system.cpu7.dcache.overall_avg_mshr_uncacheable_latency::switch_cpus7.data          inf                       # average overall mshr uncacheable latency
system.cpu7.dcache.overall_avg_mshr_uncacheable_latency::total          inf                       # average overall mshr uncacheable latency
system.cpu7.dcache.no_allocate_misses               0                       # Number of misses that were no-allocate
system.iocache.tags.replacements                    0                       # number of replacements
system.iocache.tags.tagsinuse                       0                       # Cycle average of tags in use
system.iocache.tags.total_refs                      0                       # Total number of references to valid blocks.
system.iocache.tags.sampled_refs                    0                       # Sample count of references to valid blocks.
system.iocache.tags.avg_refs                      nan                       # Average number of references to valid blocks.
system.iocache.tags.warmup_cycle                    0                       # Cycle when the warmup percentage was hit.
system.iocache.tags.tag_accesses                    0                       # Number of tag accesses
system.iocache.tags.data_accesses                   0                       # Number of data accesses
system.iocache.blocked_cycles::no_mshrs             0                       # number of cycles access was blocked
system.iocache.blocked_cycles::no_targets            0                       # number of cycles access was blocked
system.iocache.blocked::no_mshrs                    0                       # number of cycles access was blocked
system.iocache.blocked::no_targets                  0                       # number of cycles access was blocked
system.iocache.avg_blocked_cycles::no_mshrs          nan                       # average number of cycles each access was blocked
system.iocache.avg_blocked_cycles::no_targets          nan                       # average number of cycles each access was blocked
system.iocache.fast_writes                          0                       # number of fast writes performed
system.iocache.cache_copies                         0                       # number of cache copies performed
system.iocache.no_allocate_misses                   0                       # Number of misses that were no-allocate
system.switch_cpus0.kern.inst.arm                   0                       # number of arm instructions executed
system.switch_cpus0.kern.inst.quiesce               0                       # number of quiesce instructions executed
system.switch_cpus1.kern.inst.arm                   0                       # number of arm instructions executed
system.switch_cpus1.kern.inst.quiesce               0                       # number of quiesce instructions executed
system.switch_cpus2.kern.inst.arm                   0                       # number of arm instructions executed
system.switch_cpus2.kern.inst.quiesce               0                       # number of quiesce instructions executed
system.switch_cpus3.kern.inst.arm                   0                       # number of arm instructions executed
system.switch_cpus3.kern.inst.quiesce               0                       # number of quiesce instructions executed
system.switch_cpus4.kern.inst.arm                   0                       # number of arm instructions executed
system.switch_cpus4.kern.inst.quiesce               0                       # number of quiesce instructions executed
system.switch_cpus5.kern.inst.arm                   0                       # number of arm instructions executed
system.switch_cpus5.kern.inst.quiesce               0                       # number of quiesce instructions executed
system.switch_cpus6.kern.inst.arm                   0                       # number of arm instructions executed
system.switch_cpus6.kern.inst.quiesce               0                       # number of quiesce instructions executed
system.switch_cpus7.kern.inst.arm                   0                       # number of arm instructions executed
system.switch_cpus7.kern.inst.quiesce               0                       # number of quiesce instructions executed

---------- End Simulation Statistics   ----------
