
---------- Begin Simulation Statistics ----------
sim_seconds                                  2.885902                       # Number of seconds simulated
sim_ticks                                2885902242500                       # Number of ticks simulated
final_tick                               2885902242500                       # Number of ticks from beginning of simulation (restored from checkpoints and never reset)
sim_freq                                 1000000000000                       # Frequency of simulated ticks
host_inst_rate                                1649681                       # Simulator instruction rate (inst/s)
host_op_rate                                  2066611                       # Simulator op (including micro ops) rate (op/s)
host_tick_rate                             5562240875                       # Simulator tick rate (ticks/s)
host_mem_usage                                 913060                       # Number of bytes of host memory used
host_seconds                                   518.84                       # Real time elapsed on the host
sim_insts                                   855917126                       # Number of instructions simulated
sim_ops                                    1072236497                       # Number of ops (including micro ops) simulated
system.voltage_domain.voltage                       1                       # Voltage in Volts
system.clk_domain.clock                          1000                       # Clock period in ticks
system.realview.vram.bytes_read::realview.clcd    136396800                       # Number of bytes read from this memory
system.realview.vram.bytes_read::total      136396800                       # Number of bytes read from this memory
system.realview.vram.bytes_written::cpu0.data      1183488                       # Number of bytes written to this memory
system.realview.vram.bytes_written::cpu2.data       614912                       # Number of bytes written to this memory
system.realview.vram.bytes_written::cpu3.data       614912                       # Number of bytes written to this memory
system.realview.vram.bytes_written::total      2413312                       # Number of bytes written to this memory
system.realview.vram.num_reads::realview.clcd     17049600                       # Number of read requests responded to by this memory
system.realview.vram.num_reads::total        17049600                       # Number of read requests responded to by this memory
system.realview.vram.num_writes::cpu0.data       295872                       # Number of write requests responded to by this memory
system.realview.vram.num_writes::cpu2.data       153728                       # Number of write requests responded to by this memory
system.realview.vram.num_writes::cpu3.data       153728                       # Number of write requests responded to by this memory
system.realview.vram.num_writes::total         603328                       # Number of write requests responded to by this memory
system.realview.vram.bw_read::realview.clcd     47263139                       # Total read bandwidth from this memory (bytes/s)
system.realview.vram.bw_read::total          47263139                       # Total read bandwidth from this memory (bytes/s)
system.realview.vram.bw_write::cpu0.data       410093                       # Write bandwidth from this memory (bytes/s)
system.realview.vram.bw_write::cpu2.data       213074                       # Write bandwidth from this memory (bytes/s)
system.realview.vram.bw_write::cpu3.data       213074                       # Write bandwidth from this memory (bytes/s)
system.realview.vram.bw_write::total           836242                       # Write bandwidth from this memory (bytes/s)
system.realview.vram.bw_total::realview.clcd     47263139                       # Total bandwidth to/from this memory (bytes/s)
system.realview.vram.bw_total::cpu0.data       410093                       # Total bandwidth to/from this memory (bytes/s)
system.realview.vram.bw_total::cpu2.data       213074                       # Total bandwidth to/from this memory (bytes/s)
system.realview.vram.bw_total::cpu3.data       213074                       # Total bandwidth to/from this memory (bytes/s)
system.realview.vram.bw_total::total         48099381                       # Total bandwidth to/from this memory (bytes/s)
system.realview.nvmem.bytes_read::cpu0.inst           20                       # Number of bytes read from this memory
system.realview.nvmem.bytes_read::cpu1.inst           48                       # Number of bytes read from this memory
system.realview.nvmem.bytes_read::cpu2.inst           48                       # Number of bytes read from this memory
system.realview.nvmem.bytes_read::cpu3.inst           48                       # Number of bytes read from this memory
system.realview.nvmem.bytes_read::total           164                       # Number of bytes read from this memory
system.realview.nvmem.bytes_inst_read::cpu0.inst           20                       # Number of instructions bytes read from this memory
system.realview.nvmem.bytes_inst_read::cpu1.inst           48                       # Number of instructions bytes read from this memory
system.realview.nvmem.bytes_inst_read::cpu2.inst           48                       # Number of instructions bytes read from this memory
system.realview.nvmem.bytes_inst_read::cpu3.inst           48                       # Number of instructions bytes read from this memory
system.realview.nvmem.bytes_inst_read::total          164                       # Number of instructions bytes read from this memory
system.realview.nvmem.num_reads::cpu0.inst            5                       # Number of read requests responded to by this memory
system.realview.nvmem.num_reads::cpu1.inst           12                       # Number of read requests responded to by this memory
system.realview.nvmem.num_reads::cpu2.inst           12                       # Number of read requests responded to by this memory
system.realview.nvmem.num_reads::cpu3.inst           12                       # Number of read requests responded to by this memory
system.realview.nvmem.num_reads::total             41                       # Number of read requests responded to by this memory
system.realview.nvmem.bw_read::cpu0.inst            7                       # Total read bandwidth from this memory (bytes/s)
system.realview.nvmem.bw_read::cpu1.inst           17                       # Total read bandwidth from this memory (bytes/s)
system.realview.nvmem.bw_read::cpu2.inst           17                       # Total read bandwidth from this memory (bytes/s)
system.realview.nvmem.bw_read::cpu3.inst           17                       # Total read bandwidth from this memory (bytes/s)
system.realview.nvmem.bw_read::total               57                       # Total read bandwidth from this memory (bytes/s)
system.realview.nvmem.bw_inst_read::cpu0.inst            7                       # Instruction read bandwidth from this memory (bytes/s)
system.realview.nvmem.bw_inst_read::cpu1.inst           17                       # Instruction read bandwidth from this memory (bytes/s)
system.realview.nvmem.bw_inst_read::cpu2.inst           17                       # Instruction read bandwidth from this memory (bytes/s)
system.realview.nvmem.bw_inst_read::cpu3.inst           17                       # Instruction read bandwidth from this memory (bytes/s)
system.realview.nvmem.bw_inst_read::total           57                       # Instruction read bandwidth from this memory (bytes/s)
system.realview.nvmem.bw_total::cpu0.inst            7                       # Total bandwidth to/from this memory (bytes/s)
system.realview.nvmem.bw_total::cpu1.inst           17                       # Total bandwidth to/from this memory (bytes/s)
system.realview.nvmem.bw_total::cpu2.inst           17                       # Total bandwidth to/from this memory (bytes/s)
system.realview.nvmem.bw_total::cpu3.inst           17                       # Total bandwidth to/from this memory (bytes/s)
system.realview.nvmem.bw_total::total              57                       # Total bandwidth to/from this memory (bytes/s)
system.mem_ctrls.bytes_read::realview.ide       289152                       # Number of bytes read from this memory
system.mem_ctrls.bytes_read::cpu0.dtb.walker        92160                       # Number of bytes read from this memory
system.mem_ctrls.bytes_read::cpu0.itb.walker        89024                       # Number of bytes read from this memory
system.mem_ctrls.bytes_read::cpu0.inst        4293668                       # Number of bytes read from this memory
system.mem_ctrls.bytes_read::cpu0.data       42179196                       # Number of bytes read from this memory
system.mem_ctrls.bytes_read::cpu1.dtb.walker        49856                       # Number of bytes read from this memory
system.mem_ctrls.bytes_read::cpu1.itb.walker        31360                       # Number of bytes read from this memory
system.mem_ctrls.bytes_read::cpu1.inst        1599344                       # Number of bytes read from this memory
system.mem_ctrls.bytes_read::cpu1.data       13425649                       # Number of bytes read from this memory
system.mem_ctrls.bytes_read::cpu2.dtb.walker        93632                       # Number of bytes read from this memory
system.mem_ctrls.bytes_read::cpu2.itb.walker        94208                       # Number of bytes read from this memory
system.mem_ctrls.bytes_read::cpu2.inst        2702256                       # Number of bytes read from this memory
system.mem_ctrls.bytes_read::cpu2.data       14855409                       # Number of bytes read from this memory
system.mem_ctrls.bytes_read::cpu3.dtb.walker       103104                       # Number of bytes read from this memory
system.mem_ctrls.bytes_read::cpu3.itb.walker        92544                       # Number of bytes read from this memory
system.mem_ctrls.bytes_read::cpu3.inst        2712560                       # Number of bytes read from this memory
system.mem_ctrls.bytes_read::cpu3.data       21410093                       # Number of bytes read from this memory
system.mem_ctrls.bytes_read::total          104113215                       # Number of bytes read from this memory
system.mem_ctrls.bytes_inst_read::cpu0.inst      4293668                       # Number of instructions bytes read from this memory
system.mem_ctrls.bytes_inst_read::cpu1.inst      1599344                       # Number of instructions bytes read from this memory
system.mem_ctrls.bytes_inst_read::cpu2.inst      2702256                       # Number of instructions bytes read from this memory
system.mem_ctrls.bytes_inst_read::cpu3.inst      2712560                       # Number of instructions bytes read from this memory
system.mem_ctrls.bytes_inst_read::total      11307828                       # Number of instructions bytes read from this memory
system.mem_ctrls.bytes_written::writebacks     68375232                       # Number of bytes written to this memory
system.mem_ctrls.bytes_written::realview.ide     10712064                       # Number of bytes written to this memory
system.mem_ctrls.bytes_written::cpu0.data        18052                       # Number of bytes written to this memory
system.mem_ctrls.bytes_written::cpu1.data           44                       # Number of bytes written to this memory
system.mem_ctrls.bytes_written::cpu2.data           44                       # Number of bytes written to this memory
system.mem_ctrls.bytes_written::cpu3.data           40                       # Number of bytes written to this memory
system.mem_ctrls.bytes_written::total        79105476                       # Number of bytes written to this memory
system.mem_ctrls.num_reads::realview.ide         4518                       # Number of read requests responded to by this memory
system.mem_ctrls.num_reads::cpu0.dtb.walker         1440                       # Number of read requests responded to by this memory
system.mem_ctrls.num_reads::cpu0.itb.walker         1391                       # Number of read requests responded to by this memory
system.mem_ctrls.num_reads::cpu0.inst           74897                       # Number of read requests responded to by this memory
system.mem_ctrls.num_reads::cpu0.data          659606                       # Number of read requests responded to by this memory
system.mem_ctrls.num_reads::cpu1.dtb.walker          779                       # Number of read requests responded to by this memory
system.mem_ctrls.num_reads::cpu1.itb.walker          490                       # Number of read requests responded to by this memory
system.mem_ctrls.num_reads::cpu1.inst           25196                       # Number of read requests responded to by this memory
system.mem_ctrls.num_reads::cpu1.data          209871                       # Number of read requests responded to by this memory
system.mem_ctrls.num_reads::cpu2.dtb.walker         1463                       # Number of read requests responded to by this memory
system.mem_ctrls.num_reads::cpu2.itb.walker         1472                       # Number of read requests responded to by this memory
system.mem_ctrls.num_reads::cpu2.inst           42429                       # Number of read requests responded to by this memory
system.mem_ctrls.num_reads::cpu2.data          232211                       # Number of read requests responded to by this memory
system.mem_ctrls.num_reads::cpu3.dtb.walker         1611                       # Number of read requests responded to by this memory
system.mem_ctrls.num_reads::cpu3.itb.walker         1446                       # Number of read requests responded to by this memory
system.mem_ctrls.num_reads::cpu3.inst           42590                       # Number of read requests responded to by this memory
system.mem_ctrls.num_reads::cpu3.data          334612                       # Number of read requests responded to by this memory
system.mem_ctrls.num_reads::total             1636022                       # Number of read requests responded to by this memory
system.mem_ctrls.num_writes::writebacks       1068363                       # Number of write requests responded to by this memory
system.mem_ctrls.num_writes::realview.ide       167376                       # Number of write requests responded to by this memory
system.mem_ctrls.num_writes::cpu0.data           4516                       # Number of write requests responded to by this memory
system.mem_ctrls.num_writes::cpu1.data             11                       # Number of write requests responded to by this memory
system.mem_ctrls.num_writes::cpu2.data             11                       # Number of write requests responded to by this memory
system.mem_ctrls.num_writes::cpu3.data             10                       # Number of write requests responded to by this memory
system.mem_ctrls.num_writes::total            1240287                       # Number of write requests responded to by this memory
system.mem_ctrls.bw_read::realview.ide         100195                       # Total read bandwidth from this memory (bytes/s)
system.mem_ctrls.bw_read::cpu0.dtb.walker        31935                       # Total read bandwidth from this memory (bytes/s)
system.mem_ctrls.bw_read::cpu0.itb.walker        30848                       # Total read bandwidth from this memory (bytes/s)
system.mem_ctrls.bw_read::cpu0.inst           1487808                       # Total read bandwidth from this memory (bytes/s)
system.mem_ctrls.bw_read::cpu0.data          14615601                       # Total read bandwidth from this memory (bytes/s)
system.mem_ctrls.bw_read::cpu1.dtb.walker        17276                       # Total read bandwidth from this memory (bytes/s)
system.mem_ctrls.bw_read::cpu1.itb.walker        10867                       # Total read bandwidth from this memory (bytes/s)
system.mem_ctrls.bw_read::cpu1.inst            554192                       # Total read bandwidth from this memory (bytes/s)
system.mem_ctrls.bw_read::cpu1.data           4652150                       # Total read bandwidth from this memory (bytes/s)
system.mem_ctrls.bw_read::cpu2.dtb.walker        32445                       # Total read bandwidth from this memory (bytes/s)
system.mem_ctrls.bw_read::cpu2.itb.walker        32644                       # Total read bandwidth from this memory (bytes/s)
system.mem_ctrls.bw_read::cpu2.inst            936364                       # Total read bandwidth from this memory (bytes/s)
system.mem_ctrls.bw_read::cpu2.data           5147579                       # Total read bandwidth from this memory (bytes/s)
system.mem_ctrls.bw_read::cpu3.dtb.walker        35727                       # Total read bandwidth from this memory (bytes/s)
system.mem_ctrls.bw_read::cpu3.itb.walker        32068                       # Total read bandwidth from this memory (bytes/s)
system.mem_ctrls.bw_read::cpu3.inst            939935                       # Total read bandwidth from this memory (bytes/s)
system.mem_ctrls.bw_read::cpu3.data           7418856                       # Total read bandwidth from this memory (bytes/s)
system.mem_ctrls.bw_read::total              36076487                       # Total read bandwidth from this memory (bytes/s)
system.mem_ctrls.bw_inst_read::cpu0.inst      1487808                       # Instruction read bandwidth from this memory (bytes/s)
system.mem_ctrls.bw_inst_read::cpu1.inst       554192                       # Instruction read bandwidth from this memory (bytes/s)
system.mem_ctrls.bw_inst_read::cpu2.inst       936364                       # Instruction read bandwidth from this memory (bytes/s)
system.mem_ctrls.bw_inst_read::cpu3.inst       939935                       # Instruction read bandwidth from this memory (bytes/s)
system.mem_ctrls.bw_inst_read::total          3918299                       # Instruction read bandwidth from this memory (bytes/s)
system.mem_ctrls.bw_write::writebacks        23692844                       # Write bandwidth from this memory (bytes/s)
system.mem_ctrls.bw_write::realview.ide       3711860                       # Write bandwidth from this memory (bytes/s)
system.mem_ctrls.bw_write::cpu0.data             6255                       # Write bandwidth from this memory (bytes/s)
system.mem_ctrls.bw_write::cpu1.data               15                       # Write bandwidth from this memory (bytes/s)
system.mem_ctrls.bw_write::cpu2.data               15                       # Write bandwidth from this memory (bytes/s)
system.mem_ctrls.bw_write::cpu3.data               14                       # Write bandwidth from this memory (bytes/s)
system.mem_ctrls.bw_write::total             27411003                       # Write bandwidth from this memory (bytes/s)
system.mem_ctrls.bw_total::writebacks        23692844                       # Total bandwidth to/from this memory (bytes/s)
system.mem_ctrls.bw_total::realview.ide       3812054                       # Total bandwidth to/from this memory (bytes/s)
system.mem_ctrls.bw_total::cpu0.dtb.walker        31935                       # Total bandwidth to/from this memory (bytes/s)
system.mem_ctrls.bw_total::cpu0.itb.walker        30848                       # Total bandwidth to/from this memory (bytes/s)
system.mem_ctrls.bw_total::cpu0.inst          1487808                       # Total bandwidth to/from this memory (bytes/s)
system.mem_ctrls.bw_total::cpu0.data         14621856                       # Total bandwidth to/from this memory (bytes/s)
system.mem_ctrls.bw_total::cpu1.dtb.walker        17276                       # Total bandwidth to/from this memory (bytes/s)
system.mem_ctrls.bw_total::cpu1.itb.walker        10867                       # Total bandwidth to/from this memory (bytes/s)
system.mem_ctrls.bw_total::cpu1.inst           554192                       # Total bandwidth to/from this memory (bytes/s)
system.mem_ctrls.bw_total::cpu1.data          4652165                       # Total bandwidth to/from this memory (bytes/s)
system.mem_ctrls.bw_total::cpu2.dtb.walker        32445                       # Total bandwidth to/from this memory (bytes/s)
system.mem_ctrls.bw_total::cpu2.itb.walker        32644                       # Total bandwidth to/from this memory (bytes/s)
system.mem_ctrls.bw_total::cpu2.inst           936364                       # Total bandwidth to/from this memory (bytes/s)
system.mem_ctrls.bw_total::cpu2.data          5147594                       # Total bandwidth to/from this memory (bytes/s)
system.mem_ctrls.bw_total::cpu3.dtb.walker        35727                       # Total bandwidth to/from this memory (bytes/s)
system.mem_ctrls.bw_total::cpu3.itb.walker        32068                       # Total bandwidth to/from this memory (bytes/s)
system.mem_ctrls.bw_total::cpu3.inst           939935                       # Total bandwidth to/from this memory (bytes/s)
system.mem_ctrls.bw_total::cpu3.data          7418870                       # Total bandwidth to/from this memory (bytes/s)
system.mem_ctrls.bw_total::total             63487490                       # Total bandwidth to/from this memory (bytes/s)
system.mem_ctrls.readReqs                           0                       # Number of read requests accepted
system.mem_ctrls.writeReqs                          0                       # Number of write requests accepted
system.mem_ctrls.readBursts                         0                       # Number of DRAM read bursts, including those serviced by the write queue
system.mem_ctrls.writeBursts                        0                       # Number of DRAM write bursts, including those merged in the write queue
system.mem_ctrls.bytesReadDRAM                      0                       # Total number of bytes read from DRAM
system.mem_ctrls.bytesReadWrQ                       0                       # Total number of bytes read from write queue
system.mem_ctrls.bytesWritten                       0                       # Total number of bytes written to DRAM
system.mem_ctrls.bytesReadSys                       0                       # Total read bytes from the system interface side
system.mem_ctrls.bytesWrittenSys                    0                       # Total written bytes from the system interface side
system.mem_ctrls.servicedByWrQ                      0                       # Number of DRAM read bursts serviced by the write queue
system.mem_ctrls.mergedWrBursts                     0                       # Number of DRAM write bursts merged with an existing one
system.mem_ctrls.neitherReadNorWriteReqs            0                       # Number of requests that are neither read nor write
system.mem_ctrls.perBankRdBursts::0                 0                       # Per bank write bursts
system.mem_ctrls.perBankRdBursts::1                 0                       # Per bank write bursts
system.mem_ctrls.perBankRdBursts::2                 0                       # Per bank write bursts
system.mem_ctrls.perBankRdBursts::3                 0                       # Per bank write bursts
system.mem_ctrls.perBankRdBursts::4                 0                       # Per bank write bursts
system.mem_ctrls.perBankRdBursts::5                 0                       # Per bank write bursts
system.mem_ctrls.perBankRdBursts::6                 0                       # Per bank write bursts
system.mem_ctrls.perBankRdBursts::7                 0                       # Per bank write bursts
system.mem_ctrls.perBankRdBursts::8                 0                       # Per bank write bursts
system.mem_ctrls.perBankRdBursts::9                 0                       # Per bank write bursts
system.mem_ctrls.perBankRdBursts::10                0                       # Per bank write bursts
system.mem_ctrls.perBankRdBursts::11                0                       # Per bank write bursts
system.mem_ctrls.perBankRdBursts::12                0                       # Per bank write bursts
system.mem_ctrls.perBankRdBursts::13                0                       # Per bank write bursts
system.mem_ctrls.perBankRdBursts::14                0                       # Per bank write bursts
system.mem_ctrls.perBankRdBursts::15                0                       # Per bank write bursts
system.mem_ctrls.perBankWrBursts::0                 0                       # Per bank write bursts
system.mem_ctrls.perBankWrBursts::1                 0                       # Per bank write bursts
system.mem_ctrls.perBankWrBursts::2                 0                       # Per bank write bursts
system.mem_ctrls.perBankWrBursts::3                 0                       # Per bank write bursts
system.mem_ctrls.perBankWrBursts::4                 0                       # Per bank write bursts
system.mem_ctrls.perBankWrBursts::5                 0                       # Per bank write bursts
system.mem_ctrls.perBankWrBursts::6                 0                       # Per bank write bursts
system.mem_ctrls.perBankWrBursts::7                 0                       # Per bank write bursts
system.mem_ctrls.perBankWrBursts::8                 0                       # Per bank write bursts
system.mem_ctrls.perBankWrBursts::9                 0                       # Per bank write bursts
system.mem_ctrls.perBankWrBursts::10                0                       # Per bank write bursts
system.mem_ctrls.perBankWrBursts::11                0                       # Per bank write bursts
system.mem_ctrls.perBankWrBursts::12                0                       # Per bank write bursts
system.mem_ctrls.perBankWrBursts::13                0                       # Per bank write bursts
system.mem_ctrls.perBankWrBursts::14                0                       # Per bank write bursts
system.mem_ctrls.perBankWrBursts::15                0                       # Per bank write bursts
system.mem_ctrls.numRdRetry                         0                       # Number of times read queue was full causing retry
system.mem_ctrls.numWrRetry                         0                       # Number of times write queue was full causing retry
system.mem_ctrls.totGap                             0                       # Total gap between requests
system.mem_ctrls.readPktSize::0                     0                       # Read request sizes (log2)
system.mem_ctrls.readPktSize::1                     0                       # Read request sizes (log2)
system.mem_ctrls.readPktSize::2                     0                       # Read request sizes (log2)
system.mem_ctrls.readPktSize::3                     0                       # Read request sizes (log2)
system.mem_ctrls.readPktSize::4                     0                       # Read request sizes (log2)
system.mem_ctrls.readPktSize::5                     0                       # Read request sizes (log2)
system.mem_ctrls.readPktSize::6                     0                       # Read request sizes (log2)
system.mem_ctrls.writePktSize::0                    0                       # Write request sizes (log2)
system.mem_ctrls.writePktSize::1                    0                       # Write request sizes (log2)
system.mem_ctrls.writePktSize::2                    0                       # Write request sizes (log2)
system.mem_ctrls.writePktSize::3                    0                       # Write request sizes (log2)
system.mem_ctrls.writePktSize::4                    0                       # Write request sizes (log2)
system.mem_ctrls.writePktSize::5                    0                       # Write request sizes (log2)
system.mem_ctrls.writePktSize::6                    0                       # Write request sizes (log2)
system.mem_ctrls.rdQLenPdf::0                       0                       # What read queue length does an incoming req see
system.mem_ctrls.rdQLenPdf::1                       0                       # What read queue length does an incoming req see
system.mem_ctrls.rdQLenPdf::2                       0                       # What read queue length does an incoming req see
system.mem_ctrls.rdQLenPdf::3                       0                       # What read queue length does an incoming req see
system.mem_ctrls.rdQLenPdf::4                       0                       # What read queue length does an incoming req see
system.mem_ctrls.rdQLenPdf::5                       0                       # What read queue length does an incoming req see
system.mem_ctrls.rdQLenPdf::6                       0                       # What read queue length does an incoming req see
system.mem_ctrls.rdQLenPdf::7                       0                       # What read queue length does an incoming req see
system.mem_ctrls.rdQLenPdf::8                       0                       # What read queue length does an incoming req see
system.mem_ctrls.rdQLenPdf::9                       0                       # What read queue length does an incoming req see
system.mem_ctrls.rdQLenPdf::10                      0                       # What read queue length does an incoming req see
system.mem_ctrls.rdQLenPdf::11                      0                       # What read queue length does an incoming req see
system.mem_ctrls.rdQLenPdf::12                      0                       # What read queue length does an incoming req see
system.mem_ctrls.rdQLenPdf::13                      0                       # What read queue length does an incoming req see
system.mem_ctrls.rdQLenPdf::14                      0                       # What read queue length does an incoming req see
system.mem_ctrls.rdQLenPdf::15                      0                       # What read queue length does an incoming req see
system.mem_ctrls.rdQLenPdf::16                      0                       # What read queue length does an incoming req see
system.mem_ctrls.rdQLenPdf::17                      0                       # What read queue length does an incoming req see
system.mem_ctrls.rdQLenPdf::18                      0                       # What read queue length does an incoming req see
system.mem_ctrls.rdQLenPdf::19                      0                       # What read queue length does an incoming req see
system.mem_ctrls.rdQLenPdf::20                      0                       # What read queue length does an incoming req see
system.mem_ctrls.rdQLenPdf::21                      0                       # What read queue length does an incoming req see
system.mem_ctrls.rdQLenPdf::22                      0                       # What read queue length does an incoming req see
system.mem_ctrls.rdQLenPdf::23                      0                       # What read queue length does an incoming req see
system.mem_ctrls.rdQLenPdf::24                      0                       # What read queue length does an incoming req see
system.mem_ctrls.rdQLenPdf::25                      0                       # What read queue length does an incoming req see
system.mem_ctrls.rdQLenPdf::26                      0                       # What read queue length does an incoming req see
system.mem_ctrls.rdQLenPdf::27                      0                       # What read queue length does an incoming req see
system.mem_ctrls.rdQLenPdf::28                      0                       # What read queue length does an incoming req see
system.mem_ctrls.rdQLenPdf::29                      0                       # What read queue length does an incoming req see
system.mem_ctrls.rdQLenPdf::30                      0                       # What read queue length does an incoming req see
system.mem_ctrls.rdQLenPdf::31                      0                       # What read queue length does an incoming req see
system.mem_ctrls.wrQLenPdf::0                       0                       # What write queue length does an incoming req see
system.mem_ctrls.wrQLenPdf::1                       0                       # What write queue length does an incoming req see
system.mem_ctrls.wrQLenPdf::2                       0                       # What write queue length does an incoming req see
system.mem_ctrls.wrQLenPdf::3                       0                       # What write queue length does an incoming req see
system.mem_ctrls.wrQLenPdf::4                       0                       # What write queue length does an incoming req see
system.mem_ctrls.wrQLenPdf::5                       0                       # What write queue length does an incoming req see
system.mem_ctrls.wrQLenPdf::6                       0                       # What write queue length does an incoming req see
system.mem_ctrls.wrQLenPdf::7                       0                       # What write queue length does an incoming req see
system.mem_ctrls.wrQLenPdf::8                       0                       # What write queue length does an incoming req see
system.mem_ctrls.wrQLenPdf::9                       0                       # What write queue length does an incoming req see
system.mem_ctrls.wrQLenPdf::10                      0                       # What write queue length does an incoming req see
system.mem_ctrls.wrQLenPdf::11                      0                       # What write queue length does an incoming req see
system.mem_ctrls.wrQLenPdf::12                      0                       # What write queue length does an incoming req see
system.mem_ctrls.wrQLenPdf::13                      0                       # What write queue length does an incoming req see
system.mem_ctrls.wrQLenPdf::14                      0                       # What write queue length does an incoming req see
system.mem_ctrls.wrQLenPdf::15                      0                       # What write queue length does an incoming req see
system.mem_ctrls.wrQLenPdf::16                      0                       # What write queue length does an incoming req see
system.mem_ctrls.wrQLenPdf::17                      0                       # What write queue length does an incoming req see
system.mem_ctrls.wrQLenPdf::18                      0                       # What write queue length does an incoming req see
system.mem_ctrls.wrQLenPdf::19                      0                       # What write queue length does an incoming req see
system.mem_ctrls.wrQLenPdf::20                      0                       # What write queue length does an incoming req see
system.mem_ctrls.wrQLenPdf::21                      0                       # What write queue length does an incoming req see
system.mem_ctrls.wrQLenPdf::22                      0                       # What write queue length does an incoming req see
system.mem_ctrls.wrQLenPdf::23                      0                       # What write queue length does an incoming req see
system.mem_ctrls.wrQLenPdf::24                      0                       # What write queue length does an incoming req see
system.mem_ctrls.wrQLenPdf::25                      0                       # What write queue length does an incoming req see
system.mem_ctrls.wrQLenPdf::26                      0                       # What write queue length does an incoming req see
system.mem_ctrls.wrQLenPdf::27                      0                       # What write queue length does an incoming req see
system.mem_ctrls.wrQLenPdf::28                      0                       # What write queue length does an incoming req see
system.mem_ctrls.wrQLenPdf::29                      0                       # What write queue length does an incoming req see
system.mem_ctrls.wrQLenPdf::30                      0                       # What write queue length does an incoming req see
system.mem_ctrls.wrQLenPdf::31                      0                       # What write queue length does an incoming req see
system.mem_ctrls.wrQLenPdf::32                      0                       # What write queue length does an incoming req see
system.mem_ctrls.wrQLenPdf::33                      0                       # What write queue length does an incoming req see
system.mem_ctrls.wrQLenPdf::34                      0                       # What write queue length does an incoming req see
system.mem_ctrls.wrQLenPdf::35                      0                       # What write queue length does an incoming req see
system.mem_ctrls.wrQLenPdf::36                      0                       # What write queue length does an incoming req see
system.mem_ctrls.wrQLenPdf::37                      0                       # What write queue length does an incoming req see
system.mem_ctrls.wrQLenPdf::38                      0                       # What write queue length does an incoming req see
system.mem_ctrls.wrQLenPdf::39                      0                       # What write queue length does an incoming req see
system.mem_ctrls.wrQLenPdf::40                      0                       # What write queue length does an incoming req see
system.mem_ctrls.wrQLenPdf::41                      0                       # What write queue length does an incoming req see
system.mem_ctrls.wrQLenPdf::42                      0                       # What write queue length does an incoming req see
system.mem_ctrls.wrQLenPdf::43                      0                       # What write queue length does an incoming req see
system.mem_ctrls.wrQLenPdf::44                      0                       # What write queue length does an incoming req see
system.mem_ctrls.wrQLenPdf::45                      0                       # What write queue length does an incoming req see
system.mem_ctrls.wrQLenPdf::46                      0                       # What write queue length does an incoming req see
system.mem_ctrls.wrQLenPdf::47                      0                       # What write queue length does an incoming req see
system.mem_ctrls.wrQLenPdf::48                      0                       # What write queue length does an incoming req see
system.mem_ctrls.wrQLenPdf::49                      0                       # What write queue length does an incoming req see
system.mem_ctrls.wrQLenPdf::50                      0                       # What write queue length does an incoming req see
system.mem_ctrls.wrQLenPdf::51                      0                       # What write queue length does an incoming req see
system.mem_ctrls.wrQLenPdf::52                      0                       # What write queue length does an incoming req see
system.mem_ctrls.wrQLenPdf::53                      0                       # What write queue length does an incoming req see
system.mem_ctrls.wrQLenPdf::54                      0                       # What write queue length does an incoming req see
system.mem_ctrls.wrQLenPdf::55                      0                       # What write queue length does an incoming req see
system.mem_ctrls.wrQLenPdf::56                      0                       # What write queue length does an incoming req see
system.mem_ctrls.wrQLenPdf::57                      0                       # What write queue length does an incoming req see
system.mem_ctrls.wrQLenPdf::58                      0                       # What write queue length does an incoming req see
system.mem_ctrls.wrQLenPdf::59                      0                       # What write queue length does an incoming req see
system.mem_ctrls.wrQLenPdf::60                      0                       # What write queue length does an incoming req see
system.mem_ctrls.wrQLenPdf::61                      0                       # What write queue length does an incoming req see
system.mem_ctrls.wrQLenPdf::62                      0                       # What write queue length does an incoming req see
system.mem_ctrls.wrQLenPdf::63                      0                       # What write queue length does an incoming req see
system.mem_ctrls.totQLat                            0                       # Total ticks spent queuing
system.mem_ctrls.totMemAccLat                       0                       # Total ticks spent from burst creation until serviced by the DRAM
system.mem_ctrls.totBusLat                          0                       # Total ticks spent in databus transfers
system.mem_ctrls.avgQLat                          nan                       # Average queueing delay per DRAM burst
system.mem_ctrls.avgBusLat                        nan                       # Average bus latency per DRAM burst
system.mem_ctrls.avgMemAccLat                     nan                       # Average memory access latency per DRAM burst
system.mem_ctrls.avgRdBW                         0.00                       # Average DRAM read bandwidth in MiByte/s
system.mem_ctrls.avgWrBW                         0.00                       # Average achieved write bandwidth in MiByte/s
system.mem_ctrls.avgRdBWSys                      0.00                       # Average system read bandwidth in MiByte/s
system.mem_ctrls.avgWrBWSys                      0.00                       # Average system write bandwidth in MiByte/s
system.mem_ctrls.peakBW                      12800.00                       # Theoretical peak bandwidth in MiByte/s
system.mem_ctrls.busUtil                         0.00                       # Data bus utilization in percentage
system.mem_ctrls.busUtilRead                     0.00                       # Data bus utilization in percentage for reads
system.mem_ctrls.busUtilWrite                    0.00                       # Data bus utilization in percentage for writes
system.mem_ctrls.avgRdQLen                       0.00                       # Average read queue length when enqueuing
system.mem_ctrls.avgWrQLen                       0.00                       # Average write queue length when enqueuing
system.mem_ctrls.readRowHits                        0                       # Number of row buffer hits during reads
system.mem_ctrls.writeRowHits                       0                       # Number of row buffer hits during writes
system.mem_ctrls.readRowHitRate                   nan                       # Row buffer hit rate for reads
system.mem_ctrls.writeRowHitRate                  nan                       # Row buffer hit rate for writes
system.mem_ctrls.avgGap                           nan                       # Average gap between requests
system.mem_ctrls.pageHitRate                      nan                       # Row buffer hit rate, read and write combined
system.mem_ctrls.memoryStateTime::IDLE   2789529560000                       # Time in different power states
system.mem_ctrls.memoryStateTime::REF     96366400000                       # Time in different power states
system.mem_ctrls.memoryStateTime::PRE_PDN            0                       # Time in different power states
system.mem_ctrls.memoryStateTime::ACT               0                       # Time in different power states
system.mem_ctrls.memoryStateTime::ACT_PDN            0                       # Time in different power states
system.mem_ctrls.actEnergy::0                       0                       # Energy for activate commands per rank (pJ)
system.mem_ctrls.actEnergy::1                       0                       # Energy for activate commands per rank (pJ)
system.mem_ctrls.preEnergy::0                       0                       # Energy for precharge commands per rank (pJ)
system.mem_ctrls.preEnergy::1                       0                       # Energy for precharge commands per rank (pJ)
system.mem_ctrls.readEnergy::0                      0                       # Energy for read commands per rank (pJ)
system.mem_ctrls.readEnergy::1                      0                       # Energy for read commands per rank (pJ)
system.mem_ctrls.writeEnergy::0                     0                       # Energy for write commands per rank (pJ)
system.mem_ctrls.writeEnergy::1                     0                       # Energy for write commands per rank (pJ)
system.mem_ctrls.refreshEnergy::0        188492678400                       # Energy for refresh commands per rank (pJ)
system.mem_ctrls.refreshEnergy::1        188492678400                       # Energy for refresh commands per rank (pJ)
system.mem_ctrls.actBackEnergy::0         62428748400                       # Energy for active background per rank (pJ)
system.mem_ctrls.actBackEnergy::1         62428748400                       # Energy for active background per rank (pJ)
system.mem_ctrls.preBackEnergy::0        1676775507750                       # Energy for precharge background per rank (pJ)
system.mem_ctrls.preBackEnergy::1        1676775507750                       # Energy for precharge background per rank (pJ)
system.mem_ctrls.totalEnergy::0          1927696934550                       # Total energy per rank (pJ)
system.mem_ctrls.totalEnergy::1          1927696934550                       # Total energy per rank (pJ)
system.mem_ctrls.averagePower::0           667.971739                       # Core power per rank (mW)
system.mem_ctrls.averagePower::1           667.971739                       # Core power per rank (mW)
system.cpu_voltage_domain.voltage                   1                       # Voltage in Volts
system.cpu_clk_domain.clock                       500                       # Clock period in ticks
system.tol2bus.trans_dist::ReadReq           16075528                       # Transaction distribution
system.tol2bus.trans_dist::ReadResp          16075528                       # Transaction distribution
system.tol2bus.trans_dist::WriteReq            653243                       # Transaction distribution
system.tol2bus.trans_dist::WriteResp           653243                       # Transaction distribution
system.tol2bus.trans_dist::Writeback          3888545                       # Transaction distribution
system.tol2bus.trans_dist::UpgradeReq          202304                       # Transaction distribution
system.tol2bus.trans_dist::SCUpgradeReq        146547                       # Transaction distribution
system.tol2bus.trans_dist::UpgradeResp         348851                       # Transaction distribution
system.tol2bus.trans_dist::ReadExReq          2226118                       # Transaction distribution
system.tol2bus.trans_dist::ReadExResp         2226118                       # Transaction distribution
system.tol2bus.pkt_count_system.cpu0.icache.mem_side::system.l2.cpu_side      7899450                       # Packet count per connected master and slave (bytes)
system.tol2bus.pkt_count_system.cpu0.dcache.mem_side::system.l2.cpu_side      7827706                       # Packet count per connected master and slave (bytes)
system.tol2bus.pkt_count_system.cpu0.itb.walker.dma::system.l2.cpu_side       212484                       # Packet count per connected master and slave (bytes)
system.tol2bus.pkt_count_system.cpu0.dtb.walker.dma::system.l2.cpu_side       586972                       # Packet count per connected master and slave (bytes)
system.tol2bus.pkt_count_system.cpu1.icache.mem_side::system.l2.cpu_side      2788780                       # Packet count per connected master and slave (bytes)
system.tol2bus.pkt_count_system.cpu1.dcache.mem_side::system.l2.cpu_side      2832691                       # Packet count per connected master and slave (bytes)
system.tol2bus.pkt_count_system.cpu1.itb.walker.dma::system.l2.cpu_side        69524                       # Packet count per connected master and slave (bytes)
system.tol2bus.pkt_count_system.cpu1.dtb.walker.dma::system.l2.cpu_side       166048                       # Packet count per connected master and slave (bytes)
system.tol2bus.pkt_count_system.cpu2.icache.mem_side::system.l2.cpu_side      5048668                       # Packet count per connected master and slave (bytes)
system.tol2bus.pkt_count_system.cpu2.dcache.mem_side::system.l2.cpu_side      4056904                       # Packet count per connected master and slave (bytes)
system.tol2bus.pkt_count_system.cpu2.itb.walker.dma::system.l2.cpu_side       189178                       # Packet count per connected master and slave (bytes)
system.tol2bus.pkt_count_system.cpu2.dtb.walker.dma::system.l2.cpu_side       388628                       # Packet count per connected master and slave (bytes)
system.tol2bus.pkt_count_system.cpu3.icache.mem_side::system.l2.cpu_side      5330590                       # Packet count per connected master and slave (bytes)
system.tol2bus.pkt_count_system.cpu3.dcache.mem_side::system.l2.cpu_side      4585456                       # Packet count per connected master and slave (bytes)
system.tol2bus.pkt_count_system.cpu3.itb.walker.dma::system.l2.cpu_side       140996                       # Packet count per connected master and slave (bytes)
system.tol2bus.pkt_count_system.cpu3.dtb.walker.dma::system.l2.cpu_side       371950                       # Packet count per connected master and slave (bytes)
system.tol2bus.pkt_count::total              42496025                       # Packet count per connected master and slave (bytes)
system.tol2bus.pkt_size_system.cpu0.icache.mem_side::system.l2.cpu_side    252282360                       # Cumulative packet size per connected master and slave (bytes)
system.tol2bus.pkt_size_system.cpu0.dcache.mem_side::system.l2.cpu_side    269437151                       # Cumulative packet size per connected master and slave (bytes)
system.tol2bus.pkt_size_system.cpu0.itb.walker.dma::system.l2.cpu_side       424968                       # Cumulative packet size per connected master and slave (bytes)
system.tol2bus.pkt_size_system.cpu0.dtb.walker.dma::system.l2.cpu_side      1173944                       # Cumulative packet size per connected master and slave (bytes)
system.tol2bus.pkt_size_system.cpu1.icache.mem_side::system.l2.cpu_side     89227040                       # Cumulative packet size per connected master and slave (bytes)
system.tol2bus.pkt_size_system.cpu1.dcache.mem_side::system.l2.cpu_side    102774339                       # Cumulative packet size per connected master and slave (bytes)
system.tol2bus.pkt_size_system.cpu1.itb.walker.dma::system.l2.cpu_side       139048                       # Cumulative packet size per connected master and slave (bytes)
system.tol2bus.pkt_size_system.cpu1.dtb.walker.dma::system.l2.cpu_side       332096                       # Cumulative packet size per connected master and slave (bytes)
system.tol2bus.pkt_size_system.cpu2.icache.mem_side::system.l2.cpu_side    161543456                       # Cumulative packet size per connected master and slave (bytes)
system.tol2bus.pkt_size_system.cpu2.dcache.mem_side::system.l2.cpu_side    140056286                       # Cumulative packet size per connected master and slave (bytes)
system.tol2bus.pkt_size_system.cpu2.itb.walker.dma::system.l2.cpu_side       378356                       # Cumulative packet size per connected master and slave (bytes)
system.tol2bus.pkt_size_system.cpu2.dtb.walker.dma::system.l2.cpu_side       777256                       # Cumulative packet size per connected master and slave (bytes)
system.tol2bus.pkt_size_system.cpu3.icache.mem_side::system.l2.cpu_side    170564960                       # Cumulative packet size per connected master and slave (bytes)
system.tol2bus.pkt_size_system.cpu3.dcache.mem_side::system.l2.cpu_side    162973539                       # Cumulative packet size per connected master and slave (bytes)
system.tol2bus.pkt_size_system.cpu3.itb.walker.dma::system.l2.cpu_side       281992                       # Cumulative packet size per connected master and slave (bytes)
system.tol2bus.pkt_size_system.cpu3.dtb.walker.dma::system.l2.cpu_side       743900                       # Cumulative packet size per connected master and slave (bytes)
system.tol2bus.pkt_size::total             1353110691                       # Cumulative packet size per connected master and slave (bytes)
system.tol2bus.snoops                          178221                       # Total snoops (count)
system.tol2bus.snoop_fanout::samples         22617880                       # Request fanout histogram
system.tol2bus.snoop_fanout::mean           23.007749                       # Request fanout histogram
system.tol2bus.snoop_fanout::stdev           0.087684                       # Request fanout histogram
system.tol2bus.snoop_fanout::underflows             0      0.00%      0.00% # Request fanout histogram
system.tol2bus.snoop_fanout::0                      0      0.00%      0.00% # Request fanout histogram
system.tol2bus.snoop_fanout::1                      0      0.00%      0.00% # Request fanout histogram
system.tol2bus.snoop_fanout::2                      0      0.00%      0.00% # Request fanout histogram
system.tol2bus.snoop_fanout::3                      0      0.00%      0.00% # Request fanout histogram
system.tol2bus.snoop_fanout::4                      0      0.00%      0.00% # Request fanout histogram
system.tol2bus.snoop_fanout::5                      0      0.00%      0.00% # Request fanout histogram
system.tol2bus.snoop_fanout::6                      0      0.00%      0.00% # Request fanout histogram
system.tol2bus.snoop_fanout::7                      0      0.00%      0.00% # Request fanout histogram
system.tol2bus.snoop_fanout::8                      0      0.00%      0.00% # Request fanout histogram
system.tol2bus.snoop_fanout::9                      0      0.00%      0.00% # Request fanout histogram
system.tol2bus.snoop_fanout::10                     0      0.00%      0.00% # Request fanout histogram
system.tol2bus.snoop_fanout::11                     0      0.00%      0.00% # Request fanout histogram
system.tol2bus.snoop_fanout::12                     0      0.00%      0.00% # Request fanout histogram
system.tol2bus.snoop_fanout::13                     0      0.00%      0.00% # Request fanout histogram
system.tol2bus.snoop_fanout::14                     0      0.00%      0.00% # Request fanout histogram
system.tol2bus.snoop_fanout::15                     0      0.00%      0.00% # Request fanout histogram
system.tol2bus.snoop_fanout::16                     0      0.00%      0.00% # Request fanout histogram
system.tol2bus.snoop_fanout::17                     0      0.00%      0.00% # Request fanout histogram
system.tol2bus.snoop_fanout::18                     0      0.00%      0.00% # Request fanout histogram
system.tol2bus.snoop_fanout::19                     0      0.00%      0.00% # Request fanout histogram
system.tol2bus.snoop_fanout::20                     0      0.00%      0.00% # Request fanout histogram
system.tol2bus.snoop_fanout::21                     0      0.00%      0.00% # Request fanout histogram
system.tol2bus.snoop_fanout::22                     0      0.00%      0.00% # Request fanout histogram
system.tol2bus.snoop_fanout::23              22442624     99.23%     99.23% # Request fanout histogram
system.tol2bus.snoop_fanout::24                175256      0.77%    100.00% # Request fanout histogram
system.tol2bus.snoop_fanout::overflows              0      0.00%    100.00% # Request fanout histogram
system.tol2bus.snoop_fanout::min_value             23                       # Request fanout histogram
system.tol2bus.snoop_fanout::max_value             24                       # Request fanout histogram
system.tol2bus.snoop_fanout::total           22617880                       # Request fanout histogram
system.membus.trans_dist::ReadReq              893051                       # Transaction distribution
system.membus.trans_dist::ReadResp             893051                       # Transaction distribution
system.membus.trans_dist::WriteReq             653243                       # Transaction distribution
system.membus.trans_dist::WriteResp            653243                       # Transaction distribution
system.membus.trans_dist::Writeback           1068363                       # Transaction distribution
system.membus.trans_dist::WriteInvalidateReq       167376                       # Transaction distribution
system.membus.trans_dist::WriteInvalidateResp       167376                       # Transaction distribution
system.membus.trans_dist::UpgradeReq           213390                       # Transaction distribution
system.membus.trans_dist::SCUpgradeReq         142062                       # Transaction distribution
system.membus.trans_dist::UpgradeResp          135398                       # Transaction distribution
system.membus.trans_dist::ReadExReq            919193                       # Transaction distribution
system.membus.trans_dist::ReadExResp           832885                       # Transaction distribution
system.membus.pkt_count_system.iocache.mem_side::system.mem_ctrls.port       350512                       # Packet count per connected master and slave (bytes)
system.membus.pkt_count_system.iocache.mem_side::total       350512                       # Packet count per connected master and slave (bytes)
system.membus.pkt_count_system.l2.mem_side::system.bridge.slave      1418532                       # Packet count per connected master and slave (bytes)
system.membus.pkt_count_system.l2.mem_side::system.realview.nvmem.port           82                       # Packet count per connected master and slave (bytes)
system.membus.pkt_count_system.l2.mem_side::system.realview.gic.pio        51880                       # Packet count per connected master and slave (bytes)
system.membus.pkt_count_system.l2.mem_side::system.mem_ctrls.port      4917625                       # Packet count per connected master and slave (bytes)
system.membus.pkt_count_system.l2.mem_side::total      6388119                       # Packet count per connected master and slave (bytes)
system.membus.pkt_count::total                6738631                       # Packet count per connected master and slave (bytes)
system.membus.pkt_size_system.iocache.mem_side::system.mem_ctrls.port     11216384                       # Cumulative packet size per connected master and slave (bytes)
system.membus.pkt_size_system.iocache.mem_side::total     11216384                       # Cumulative packet size per connected master and slave (bytes)
system.membus.pkt_size_system.l2.mem_side::system.bridge.slave      2721284                       # Cumulative packet size per connected master and slave (bytes)
system.membus.pkt_size_system.l2.mem_side::system.realview.nvmem.port          164                       # Cumulative packet size per connected master and slave (bytes)
system.membus.pkt_size_system.l2.mem_side::system.realview.gic.pio       103760                       # Cumulative packet size per connected master and slave (bytes)
system.membus.pkt_size_system.l2.mem_side::system.mem_ctrls.port    172217475                       # Cumulative packet size per connected master and slave (bytes)
system.membus.pkt_size_system.l2.mem_side::total    175042683                       # Cumulative packet size per connected master and slave (bytes)
system.membus.pkt_size::total               186259067                       # Cumulative packet size per connected master and slave (bytes)
system.membus.snoops                                0                       # Total snoops (count)
system.membus.snoop_fanout::samples           3307017                       # Request fanout histogram
system.membus.snoop_fanout::mean                    1                       # Request fanout histogram
system.membus.snoop_fanout::stdev                   0                       # Request fanout histogram
system.membus.snoop_fanout::underflows              0      0.00%      0.00% # Request fanout histogram
system.membus.snoop_fanout::0                       0      0.00%      0.00% # Request fanout histogram
system.membus.snoop_fanout::1                 3307017    100.00%    100.00% # Request fanout histogram
system.membus.snoop_fanout::2                       0      0.00%    100.00% # Request fanout histogram
system.membus.snoop_fanout::overflows               0      0.00%    100.00% # Request fanout histogram
system.membus.snoop_fanout::min_value               1                       # Request fanout histogram
system.membus.snoop_fanout::max_value               1                       # Request fanout histogram
system.membus.snoop_fanout::total             3307017                       # Request fanout histogram
system.realview.ethernet.descDMAReads               0                       # Number of descriptors the device read w/ DMA
system.realview.ethernet.descDMAWrites              0                       # Number of descriptors the device wrote w/ DMA
system.realview.ethernet.descDmaReadBytes            0                       # number of descriptor bytes read w/ DMA
system.realview.ethernet.descDmaWriteBytes            0                       # number of descriptor bytes write w/ DMA
system.realview.ethernet.postedSwi                  0                       # number of software interrupts posted to CPU
system.realview.ethernet.coalescedSwi             nan                       # average number of Swi's coalesced into each post
system.realview.ethernet.totalSwi                   0                       # total number of Swi written to ISR
system.realview.ethernet.postedRxIdle               0                       # number of rxIdle interrupts posted to CPU
system.realview.ethernet.coalescedRxIdle          nan                       # average number of RxIdle's coalesced into each post
system.realview.ethernet.totalRxIdle                0                       # total number of RxIdle written to ISR
system.realview.ethernet.postedRxOk                 0                       # number of RxOk interrupts posted to CPU
system.realview.ethernet.coalescedRxOk            nan                       # average number of RxOk's coalesced into each post
system.realview.ethernet.totalRxOk                  0                       # total number of RxOk written to ISR
system.realview.ethernet.postedRxDesc               0                       # number of RxDesc interrupts posted to CPU
system.realview.ethernet.coalescedRxDesc          nan                       # average number of RxDesc's coalesced into each post
system.realview.ethernet.totalRxDesc                0                       # total number of RxDesc written to ISR
system.realview.ethernet.postedTxOk                 0                       # number of TxOk interrupts posted to CPU
system.realview.ethernet.coalescedTxOk            nan                       # average number of TxOk's coalesced into each post
system.realview.ethernet.totalTxOk                  0                       # total number of TxOk written to ISR
system.realview.ethernet.postedTxIdle               0                       # number of TxIdle interrupts posted to CPU
system.realview.ethernet.coalescedTxIdle          nan                       # average number of TxIdle's coalesced into each post
system.realview.ethernet.totalTxIdle                0                       # total number of TxIdle written to ISR
system.realview.ethernet.postedTxDesc               0                       # number of TxDesc interrupts posted to CPU
system.realview.ethernet.coalescedTxDesc          nan                       # average number of TxDesc's coalesced into each post
system.realview.ethernet.totalTxDesc                0                       # total number of TxDesc written to ISR
system.realview.ethernet.postedRxOrn                0                       # number of RxOrn posted to CPU
system.realview.ethernet.coalescedRxOrn           nan                       # average number of RxOrn's coalesced into each post
system.realview.ethernet.totalRxOrn                 0                       # total number of RxOrn written to ISR
system.realview.ethernet.coalescedTotal           nan                       # average number of interrupts coalesced into each post
system.realview.ethernet.postedInterrupts            0                       # number of posts to CPU
system.realview.ethernet.droppedPackets             0                       # number of packets dropped
system.cf0.dma_read_full_pages                      4                       # Number of full page size DMA reads (not PRD).
system.cf0.dma_read_bytes                      351232                       # Number of bytes transfered via DMA reads (not PRD).
system.cf0.dma_read_txs                           306                       # Number of DMA read transactions (not PRD).
system.cf0.dma_write_full_pages                  2392                       # Number of full page size DMA writes.
system.cf0.dma_write_bytes                   10712064                       # Number of bytes transfered via DMA writes.
system.cf0.dma_write_txs                         3126                       # Number of DMA write transactions.
system.l2.tags.replacements                   1580114                       # number of replacements
system.l2.tags.tagsinuse                 31989.151208                       # Cycle average of tags in use
system.l2.tags.total_refs                    11411184                       # Total number of references to valid blocks.
system.l2.tags.sampled_refs                   1580114                       # Sample count of references to valid blocks.
system.l2.tags.avg_refs                      7.221747                       # Average number of references to valid blocks.
system.l2.tags.warmup_cycle                2772237500                       # Cycle when the warmup percentage was hit.
system.l2.tags.occ_blocks::writebacks    17728.173382                       # Average occupied blocks per requestor
system.l2.tags.occ_blocks::cpu0.dtb.walker     6.000895                       # Average occupied blocks per requestor
system.l2.tags.occ_blocks::cpu0.itb.walker     1.707971                       # Average occupied blocks per requestor
system.l2.tags.occ_blocks::cpu0.inst      3859.204596                       # Average occupied blocks per requestor
system.l2.tags.occ_blocks::cpu0.data      2439.729274                       # Average occupied blocks per requestor
system.l2.tags.occ_blocks::cpu1.dtb.walker     0.708706                       # Average occupied blocks per requestor
system.l2.tags.occ_blocks::cpu1.itb.walker     1.359683                       # Average occupied blocks per requestor
system.l2.tags.occ_blocks::cpu1.inst      1283.229070                       # Average occupied blocks per requestor
system.l2.tags.occ_blocks::cpu1.data      3776.743549                       # Average occupied blocks per requestor
system.l2.tags.occ_blocks::cpu2.dtb.walker     1.413482                       # Average occupied blocks per requestor
system.l2.tags.occ_blocks::cpu2.itb.walker     1.156801                       # Average occupied blocks per requestor
system.l2.tags.occ_blocks::cpu2.inst       910.929131                       # Average occupied blocks per requestor
system.l2.tags.occ_blocks::cpu2.data      1482.356326                       # Average occupied blocks per requestor
system.l2.tags.occ_blocks::cpu3.dtb.walker     1.661825                       # Average occupied blocks per requestor
system.l2.tags.occ_blocks::cpu3.itb.walker     1.643417                       # Average occupied blocks per requestor
system.l2.tags.occ_blocks::cpu3.inst       170.257213                       # Average occupied blocks per requestor
system.l2.tags.occ_blocks::cpu3.data       322.875888                       # Average occupied blocks per requestor
system.l2.tags.occ_percent::writebacks       0.541021                       # Average percentage of cache occupancy
system.l2.tags.occ_percent::cpu0.dtb.walker     0.000183                       # Average percentage of cache occupancy
system.l2.tags.occ_percent::cpu0.itb.walker     0.000052                       # Average percentage of cache occupancy
system.l2.tags.occ_percent::cpu0.inst        0.117774                       # Average percentage of cache occupancy
system.l2.tags.occ_percent::cpu0.data        0.074455                       # Average percentage of cache occupancy
system.l2.tags.occ_percent::cpu1.dtb.walker     0.000022                       # Average percentage of cache occupancy
system.l2.tags.occ_percent::cpu1.itb.walker     0.000041                       # Average percentage of cache occupancy
system.l2.tags.occ_percent::cpu1.inst        0.039161                       # Average percentage of cache occupancy
system.l2.tags.occ_percent::cpu1.data        0.115257                       # Average percentage of cache occupancy
system.l2.tags.occ_percent::cpu2.dtb.walker     0.000043                       # Average percentage of cache occupancy
system.l2.tags.occ_percent::cpu2.itb.walker     0.000035                       # Average percentage of cache occupancy
system.l2.tags.occ_percent::cpu2.inst        0.027799                       # Average percentage of cache occupancy
system.l2.tags.occ_percent::cpu2.data        0.045238                       # Average percentage of cache occupancy
system.l2.tags.occ_percent::cpu3.dtb.walker     0.000051                       # Average percentage of cache occupancy
system.l2.tags.occ_percent::cpu3.itb.walker     0.000050                       # Average percentage of cache occupancy
system.l2.tags.occ_percent::cpu3.inst        0.005196                       # Average percentage of cache occupancy
system.l2.tags.occ_percent::cpu3.data        0.009853                       # Average percentage of cache occupancy
system.l2.tags.occ_percent::total            0.976231                       # Average percentage of cache occupancy
system.l2.tags.occ_task_id_blocks::1023            26                       # Occupied blocks per task id
system.l2.tags.occ_task_id_blocks::1024         31645                       # Occupied blocks per task id
system.l2.tags.age_task_id_blocks_1023::0            1                       # Occupied blocks per task id
system.l2.tags.age_task_id_blocks_1023::1            2                       # Occupied blocks per task id
system.l2.tags.age_task_id_blocks_1023::2            1                       # Occupied blocks per task id
system.l2.tags.age_task_id_blocks_1023::3            8                       # Occupied blocks per task id
system.l2.tags.age_task_id_blocks_1023::4           14                       # Occupied blocks per task id
system.l2.tags.age_task_id_blocks_1024::0          246                       # Occupied blocks per task id
system.l2.tags.age_task_id_blocks_1024::1         4997                       # Occupied blocks per task id
system.l2.tags.age_task_id_blocks_1024::2         3659                       # Occupied blocks per task id
system.l2.tags.age_task_id_blocks_1024::3        12797                       # Occupied blocks per task id
system.l2.tags.age_task_id_blocks_1024::4         9946                       # Occupied blocks per task id
system.l2.tags.occ_task_id_percent::1023     0.000793                       # Percentage of cache occupancy per task id
system.l2.tags.occ_task_id_percent::1024     0.965729                       # Percentage of cache occupancy per task id
system.l2.tags.tag_accesses                 175364632                       # Number of tag accesses
system.l2.tags.data_accesses                175364632                       # Number of data accesses
system.l2.ReadReq_hits::cpu0.dtb.walker        216400                       # number of ReadReq hits
system.l2.ReadReq_hits::cpu0.itb.walker         69014                       # number of ReadReq hits
system.l2.ReadReq_hits::cpu0.inst             3874823                       # number of ReadReq hits
system.l2.ReadReq_hits::cpu0.data             1298396                       # number of ReadReq hits
system.l2.ReadReq_hits::cpu1.dtb.walker         49320                       # number of ReadReq hits
system.l2.ReadReq_hits::cpu1.itb.walker         16668                       # number of ReadReq hits
system.l2.ReadReq_hits::cpu1.inst             1369182                       # number of ReadReq hits
system.l2.ReadReq_hits::cpu1.data              480046                       # number of ReadReq hits
system.l2.ReadReq_hits::cpu2.dtb.walker        150437                       # number of ReadReq hits
system.l2.ReadReq_hits::cpu2.itb.walker         71011                       # number of ReadReq hits
system.l2.ReadReq_hits::cpu2.inst             2481893                       # number of ReadReq hits
system.l2.ReadReq_hits::cpu2.data              750255                       # number of ReadReq hits
system.l2.ReadReq_hits::cpu3.dtb.walker        140919                       # number of ReadReq hits
system.l2.ReadReq_hits::cpu3.itb.walker         48192                       # number of ReadReq hits
system.l2.ReadReq_hits::cpu3.inst             2622693                       # number of ReadReq hits
system.l2.ReadReq_hits::cpu3.data              845887                       # number of ReadReq hits
system.l2.ReadReq_hits::total                14485136                       # number of ReadReq hits
system.l2.Writeback_hits::writebacks          3888545                       # number of Writeback hits
system.l2.Writeback_hits::total               3888545                       # number of Writeback hits
system.l2.UpgradeReq_hits::cpu0.data             3840                       # number of UpgradeReq hits
system.l2.UpgradeReq_hits::cpu1.data             6272                       # number of UpgradeReq hits
system.l2.UpgradeReq_hits::cpu2.data             3477                       # number of UpgradeReq hits
system.l2.UpgradeReq_hits::cpu3.data             2414                       # number of UpgradeReq hits
system.l2.UpgradeReq_hits::total                16003                       # number of UpgradeReq hits
system.l2.SCUpgradeReq_hits::cpu0.data           1640                       # number of SCUpgradeReq hits
system.l2.SCUpgradeReq_hits::cpu1.data            863                       # number of SCUpgradeReq hits
system.l2.SCUpgradeReq_hits::cpu2.data           1083                       # number of SCUpgradeReq hits
system.l2.SCUpgradeReq_hits::cpu3.data            899                       # number of SCUpgradeReq hits
system.l2.SCUpgradeReq_hits::total               4485                       # number of SCUpgradeReq hits
system.l2.ReadExReq_hits::cpu0.data            487679                       # number of ReadExReq hits
system.l2.ReadExReq_hits::cpu1.data            201909                       # number of ReadExReq hits
system.l2.ReadExReq_hits::cpu2.data            284882                       # number of ReadExReq hits
system.l2.ReadExReq_hits::cpu3.data            305366                       # number of ReadExReq hits
system.l2.ReadExReq_hits::total               1279836                       # number of ReadExReq hits
system.l2.demand_hits::cpu0.dtb.walker         216400                       # number of demand (read+write) hits
system.l2.demand_hits::cpu0.itb.walker          69014                       # number of demand (read+write) hits
system.l2.demand_hits::cpu0.inst              3874823                       # number of demand (read+write) hits
system.l2.demand_hits::cpu0.data              1786075                       # number of demand (read+write) hits
system.l2.demand_hits::cpu1.dtb.walker          49320                       # number of demand (read+write) hits
system.l2.demand_hits::cpu1.itb.walker          16668                       # number of demand (read+write) hits
system.l2.demand_hits::cpu1.inst              1369182                       # number of demand (read+write) hits
system.l2.demand_hits::cpu1.data               681955                       # number of demand (read+write) hits
system.l2.demand_hits::cpu2.dtb.walker         150437                       # number of demand (read+write) hits
system.l2.demand_hits::cpu2.itb.walker          71011                       # number of demand (read+write) hits
system.l2.demand_hits::cpu2.inst              2481893                       # number of demand (read+write) hits
system.l2.demand_hits::cpu2.data              1035137                       # number of demand (read+write) hits
system.l2.demand_hits::cpu3.dtb.walker         140919                       # number of demand (read+write) hits
system.l2.demand_hits::cpu3.itb.walker          48192                       # number of demand (read+write) hits
system.l2.demand_hits::cpu3.inst              2622693                       # number of demand (read+write) hits
system.l2.demand_hits::cpu3.data              1151253                       # number of demand (read+write) hits
system.l2.demand_hits::total                 15764972                       # number of demand (read+write) hits
system.l2.overall_hits::cpu0.dtb.walker        216400                       # number of overall hits
system.l2.overall_hits::cpu0.itb.walker         69014                       # number of overall hits
system.l2.overall_hits::cpu0.inst             3874823                       # number of overall hits
system.l2.overall_hits::cpu0.data             1786075                       # number of overall hits
system.l2.overall_hits::cpu1.dtb.walker         49320                       # number of overall hits
system.l2.overall_hits::cpu1.itb.walker         16668                       # number of overall hits
system.l2.overall_hits::cpu1.inst             1369182                       # number of overall hits
system.l2.overall_hits::cpu1.data              681955                       # number of overall hits
system.l2.overall_hits::cpu2.dtb.walker        150437                       # number of overall hits
system.l2.overall_hits::cpu2.itb.walker         71011                       # number of overall hits
system.l2.overall_hits::cpu2.inst             2481893                       # number of overall hits
system.l2.overall_hits::cpu2.data             1035137                       # number of overall hits
system.l2.overall_hits::cpu3.dtb.walker        140919                       # number of overall hits
system.l2.overall_hits::cpu3.itb.walker         48192                       # number of overall hits
system.l2.overall_hits::cpu3.inst             2622693                       # number of overall hits
system.l2.overall_hits::cpu3.data             1151253                       # number of overall hits
system.l2.overall_hits::total                15764972                       # number of overall hits
system.l2.ReadReq_misses::cpu0.dtb.walker         1440                       # number of ReadReq misses
system.l2.ReadReq_misses::cpu0.itb.walker         1391                       # number of ReadReq misses
system.l2.ReadReq_misses::cpu0.inst             66568                       # number of ReadReq misses
system.l2.ReadReq_misses::cpu0.data            329749                       # number of ReadReq misses
system.l2.ReadReq_misses::cpu1.dtb.walker          779                       # number of ReadReq misses
system.l2.ReadReq_misses::cpu1.itb.walker          490                       # number of ReadReq misses
system.l2.ReadReq_misses::cpu1.inst             24976                       # number of ReadReq misses
system.l2.ReadReq_misses::cpu1.data             67833                       # number of ReadReq misses
system.l2.ReadReq_misses::cpu2.dtb.walker         1463                       # number of ReadReq misses
system.l2.ReadReq_misses::cpu2.itb.walker         1472                       # number of ReadReq misses
system.l2.ReadReq_misses::cpu2.inst             42209                       # number of ReadReq misses
system.l2.ReadReq_misses::cpu2.data             92556                       # number of ReadReq misses
system.l2.ReadReq_misses::cpu3.dtb.walker         1611                       # number of ReadReq misses
[...]
system.cpu3.icache.tags.occ_blocks::cpu3.inst          512                       # Average occupied blocks per requestor
system.cpu3.icache.tags.occ_percent::cpu3.inst            1                       # Average percentage of cache occupancy
system.cpu3.icache.tags.occ_percent::total            1                       # Average percentage of cache occupancy
system.cpu3.icache.tags.occ_task_id_blocks::1024          512                       # Occupied blocks per task id
system.cpu3.icache.tags.age_task_id_blocks_1024::0          138                       # Occupied blocks per task id
system.cpu3.icache.tags.age_task_id_blocks_1024::1          356                       # Occupied blocks per task id
system.cpu3.icache.tags.age_task_id_blocks_1024::2           18                       # Occupied blocks per task id
system.cpu3.icache.tags.occ_task_id_percent::1024            1                       # Percentage of cache occupancy per task id
system.cpu3.icache.tags.tag_accesses       2046649197                       # Number of tag accesses
system.cpu3.icache.tags.data_accesses      2046649197                       # Number of data accesses
system.cpu3.icache.ReadReq_hits::cpu3.inst   1022953629                       # number of ReadReq hits
system.cpu3.icache.ReadReq_hits::total     1022953629                       # number of ReadReq hits
system.cpu3.icache.demand_hits::cpu3.inst   1022953629                       # number of demand (read+write) hits
system.cpu3.icache.demand_hits::total      1022953629                       # number of demand (read+write) hits
system.cpu3.icache.overall_hits::cpu3.inst   1022953629                       # number of overall hits
system.cpu3.icache.overall_hits::total     1022953629                       # number of overall hits
system.cpu3.icache.ReadReq_misses::cpu3.inst       247313                       # number of ReadReq misses
system.cpu3.icache.ReadReq_misses::total       247313                       # number of ReadReq misses
system.cpu3.icache.demand_misses::cpu3.inst       247313                       # number of demand (read+write) misses
system.cpu3.icache.demand_misses::total        247313                       # number of demand (read+write) misses
system.cpu3.icache.overall_misses::cpu3.inst       247313                       # number of overall misses
system.cpu3.icache.overall_misses::total       247313                       # number of overall misses
system.cpu3.icache.ReadReq_accesses::cpu3.inst   1023200942                       # number of ReadReq accesses(hits+misses)
system.cpu3.icache.ReadReq_accesses::total   1023200942                       # number of ReadReq accesses(hits+misses)
system.cpu3.icache.demand_accesses::cpu3.inst   1023200942                       # number of demand (read+write) accesses
system.cpu3.icache.demand_accesses::total   1023200942                       # number of demand (read+write) accesses
system.cpu3.icache.overall_accesses::cpu3.inst   1023200942                       # number of overall (read+write) accesses
system.cpu3.icache.overall_accesses::total   1023200942                       # number of overall (read+write) accesses
system.cpu3.icache.ReadReq_miss_rate::cpu3.inst     0.000242                       # miss rate for ReadReq accesses
system.cpu3.icache.ReadReq_miss_rate::total     0.000242                       # miss rate for ReadReq accesses
system.cpu3.icache.demand_miss_rate::cpu3.inst     0.000242                       # miss rate for demand accesses
system.cpu3.icache.demand_miss_rate::total     0.000242                       # miss rate for demand accesses
system.cpu3.icache.overall_miss_rate::cpu3.inst     0.000242                       # miss rate for overall accesses
system.cpu3.icache.overall_miss_rate::total     0.000242                       # miss rate for overall accesses
system.cpu3.icache.blocked_cycles::no_mshrs            0                       # number of cycles access was blocked
system.cpu3.icache.blocked_cycles::no_targets            0                       # number of cycles access was blocked
system.cpu3.icache.blocked::no_mshrs                0                       # number of cycles access was blocked
system.cpu3.icache.blocked::no_targets              0                       # number of cycles access was blocked
system.cpu3.icache.avg_blocked_cycles::no_mshrs          nan                       # average number of cycles each access was blocked
system.cpu3.icache.avg_blocked_cycles::no_targets          nan                       # average number of cycles each access was blocked
system.cpu3.icache.fast_writes                      0                       # number of fast writes performed
system.cpu3.icache.cache_copies                     0                       # number of cache copies performed
system.cpu3.icache.no_allocate_misses               0                       # Number of misses that were no-allocate
system.cpu3.dcache.tags.replacements           246678                       # number of replacements
system.cpu3.dcache.tags.tagsinuse          984.823143                       # Cycle average of tags in use
system.cpu3.dcache.tags.total_refs          129125539                       # Total number of references to valid blocks.
system.cpu3.dcache.tags.sampled_refs           247702                       # Sample count of references to valid blocks.
system.cpu3.dcache.tags.avg_refs           521.293889                       # Average number of references to valid blocks.
system.cpu3.dcache.tags.warmup_cycle                0                       # Cycle when the warmup percentage was hit.
system.cpu3.dcache.tags.occ_blocks::cpu3.data   984.823143                       # Average occupied blocks per requestor
system.cpu3.dcache.tags.occ_percent::cpu3.data     0.961741                       # Average percentage of cache occupancy
system.cpu3.dcache.tags.occ_percent::total     0.961741                       # Average percentage of cache occupancy
system.cpu3.dcache.tags.occ_task_id_blocks::1024         1024                       # Occupied blocks per task id
system.cpu3.dcache.tags.age_task_id_blocks_1024::0           73                       # Occupied blocks per task id
system.cpu3.dcache.tags.age_task_id_blocks_1024::1          835                       # Occupied blocks per task id
system.cpu3.dcache.tags.age_task_id_blocks_1024::2          114                       # Occupied blocks per task id
system.cpu3.dcache.tags.age_task_id_blocks_1024::4            2                       # Occupied blocks per task id
system.cpu3.dcache.tags.occ_task_id_percent::1024            1                       # Percentage of cache occupancy per task id
system.cpu3.dcache.tags.tag_accesses        258958326                       # Number of tag accesses
system.cpu3.dcache.tags.data_accesses       258958326                       # Number of data accesses
system.cpu3.dcache.ReadReq_hits::cpu3.data     61089099                       # number of ReadReq hits
system.cpu3.dcache.ReadReq_hits::total       61089099                       # number of ReadReq hits
system.cpu3.dcache.WriteReq_hits::cpu3.data     67835943                       # number of WriteReq hits
system.cpu3.dcache.WriteReq_hits::total      67835943                       # number of WriteReq hits
system.cpu3.dcache.SoftPFReq_hits::cpu3.data        16159                       # number of SoftPFReq hits
system.cpu3.dcache.SoftPFReq_hits::total        16159                       # number of SoftPFReq hits
system.cpu3.dcache.LoadLockedReq_hits::cpu3.data        76595                       # number of LoadLockedReq hits
system.cpu3.dcache.LoadLockedReq_hits::total        76595                       # number of LoadLockedReq hits
system.cpu3.dcache.StoreCondReq_hits::cpu3.data        76881                       # number of StoreCondReq hits
system.cpu3.dcache.StoreCondReq_hits::total        76881                       # number of StoreCondReq hits
system.cpu3.dcache.demand_hits::cpu3.data    128925042                       # number of demand (read+write) hits
system.cpu3.dcache.demand_hits::total       128925042                       # number of demand (read+write) hits
system.cpu3.dcache.overall_hits::cpu3.data    128941201                       # number of overall hits
system.cpu3.dcache.overall_hits::total      128941201                       # number of overall hits
system.cpu3.dcache.ReadReq_misses::cpu3.data       157782                       # number of ReadReq misses
system.cpu3.dcache.ReadReq_misses::total       157782                       # number of ReadReq misses
system.cpu3.dcache.WriteReq_misses::cpu3.data        72616                       # number of WriteReq misses
system.cpu3.dcache.WriteReq_misses::total        72616                       # number of WriteReq misses
system.cpu3.dcache.SoftPFReq_misses::cpu3.data        22592                       # number of SoftPFReq misses
system.cpu3.dcache.SoftPFReq_misses::total        22592                       # number of SoftPFReq misses
system.cpu3.dcache.LoadLockedReq_misses::cpu3.data         3148                       # number of LoadLockedReq misses
system.cpu3.dcache.LoadLockedReq_misses::total         3148                       # number of LoadLockedReq misses
system.cpu3.dcache.StoreCondReq_misses::cpu3.data         2663                       # number of StoreCondReq misses
system.cpu3.dcache.StoreCondReq_misses::total         2663                       # number of StoreCondReq misses
system.cpu3.dcache.demand_misses::cpu3.data       230398                       # number of demand (read+write) misses
system.cpu3.dcache.demand_misses::total        230398                       # number of demand (read+write) misses
system.cpu3.dcache.overall_misses::cpu3.data       252990                       # number of overall misses
system.cpu3.dcache.overall_misses::total       252990                       # number of overall misses
system.cpu3.dcache.ReadReq_accesses::cpu3.data     61246881                       # number of ReadReq accesses(hits+misses)
system.cpu3.dcache.ReadReq_accesses::total     61246881                       # number of ReadReq accesses(hits+misses)
system.cpu3.dcache.WriteReq_accesses::cpu3.data     67908559                       # number of WriteReq accesses(hits+misses)
system.cpu3.dcache.WriteReq_accesses::total     67908559                       # number of WriteReq accesses(hits+misses)
system.cpu3.dcache.SoftPFReq_accesses::cpu3.data        38751                       # number of SoftPFReq accesses(hits+misses)
system.cpu3.dcache.SoftPFReq_accesses::total        38751                       # number of SoftPFReq accesses(hits+misses)
system.cpu3.dcache.LoadLockedReq_accesses::cpu3.data        79743                       # number of LoadLockedReq accesses(hits+misses)
system.cpu3.dcache.LoadLockedReq_accesses::total        79743                       # number of LoadLockedReq accesses(hits+misses)
system.cpu3.dcache.StoreCondReq_accesses::cpu3.data        79544                       # number of StoreCondReq accesses(hits+misses)
system.cpu3.dcache.StoreCondReq_accesses::total        79544                       # number of StoreCondReq accesses(hits+misses)
system.cpu3.dcache.demand_accesses::cpu3.data    129155440                       # number of demand (read+write) accesses
system.cpu3.dcache.demand_accesses::total    129155440                       # number of demand (read+write) accesses
system.cpu3.dcache.overall_accesses::cpu3.data    129194191                       # number of overall (read+write) accesses
system.cpu3.dcache.overall_accesses::total    129194191                       # number of overall (read+write) accesses
system.cpu3.dcache.ReadReq_miss_rate::cpu3.data     0.002576                       # miss rate for ReadReq accesses
system.cpu3.dcache.ReadReq_miss_rate::total     0.002576                       # miss rate for ReadReq accesses
system.cpu3.dcache.WriteReq_miss_rate::cpu3.data     0.001069                       # miss rate for WriteReq accesses
system.cpu3.dcache.WriteReq_miss_rate::total     0.001069                       # miss rate for WriteReq accesses
system.cpu3.dcache.SoftPFReq_miss_rate::cpu3.data     0.583004                       # miss rate for SoftPFReq accesses
system.cpu3.dcache.SoftPFReq_miss_rate::total     0.583004                       # miss rate for SoftPFReq accesses
system.cpu3.dcache.LoadLockedReq_miss_rate::cpu3.data     0.039477                       # miss rate for LoadLockedReq accesses
system.cpu3.dcache.LoadLockedReq_miss_rate::total     0.039477                       # miss rate for LoadLockedReq accesses
system.cpu3.dcache.StoreCondReq_miss_rate::cpu3.data     0.033478                       # miss rate for StoreCondReq accesses
system.cpu3.dcache.StoreCondReq_miss_rate::total     0.033478                       # miss rate for StoreCondReq accesses
system.cpu3.dcache.demand_miss_rate::cpu3.data     0.001784                       # miss rate for demand accesses
system.cpu3.dcache.demand_miss_rate::total     0.001784                       # miss rate for demand accesses
system.cpu3.dcache.overall_miss_rate::cpu3.data     0.001958                       # miss rate for overall accesses
system.cpu3.dcache.overall_miss_rate::total     0.001958                       # miss rate for overall accesses
system.cpu3.dcache.blocked_cycles::no_mshrs            0                       # number of cycles access was blocked
system.cpu3.dcache.blocked_cycles::no_targets            0                       # number of cycles access was blocked
system.cpu3.dcache.blocked::no_mshrs                0                       # number of cycles access was blocked
system.cpu3.dcache.blocked::no_targets              0                       # number of cycles access was blocked
system.cpu3.dcache.avg_blocked_cycles::no_mshrs          nan                       # average number of cycles each access was blocked
system.cpu3.dcache.avg_blocked_cycles::no_targets          nan                       # average number of cycles each access was blocked
system.cpu3.dcache.fast_writes                      0                       # number of fast writes performed
system.cpu3.dcache.cache_copies                     0                       # number of cache copies performed
system.cpu3.dcache.writebacks::writebacks       108222                       # number of writebacks
system.cpu3.dcache.writebacks::total           108222                       # number of writebacks
system.cpu3.dcache.no_allocate_misses               0                       # Number of misses that were no-allocate
system.iocache.tags.replacements                 1092                       # number of replacements
system.iocache.tags.tagsinuse                      16                       # Cycle average of tags in use
system.iocache.tags.total_refs                      0                       # Total number of references to valid blocks.
system.iocache.tags.sampled_refs                 1108                       # Sample count of references to valid blocks.
system.iocache.tags.avg_refs                        0                       # Average number of references to valid blocks.
system.iocache.tags.warmup_cycle                    0                       # Cycle when the warmup percentage was hit.
system.iocache.tags.occ_blocks::realview.ide           16                       # Average occupied blocks per requestor
system.iocache.tags.occ_percent::realview.ide            1                       # Average percentage of cache occupancy
system.iocache.tags.occ_percent::total              1                       # Average percentage of cache occupancy
system.iocache.tags.occ_task_id_blocks::1023           16                       # Occupied blocks per task id
system.iocache.tags.age_task_id_blocks_1023::4           16                       # Occupied blocks per task id
system.iocache.tags.occ_task_id_percent::1023            1                       # Percentage of cache occupancy per task id
system.iocache.tags.tag_accesses                 9828                       # Number of tag accesses
system.iocache.tags.data_accesses                9828                       # Number of data accesses
system.iocache.WriteInvalidateReq_hits::realview.ide         1072                       # number of WriteInvalidateReq hits
system.iocache.WriteInvalidateReq_hits::total         1072                       # number of WriteInvalidateReq hits
system.iocache.ReadReq_misses::realview.ide           20                       # number of ReadReq misses
system.iocache.ReadReq_misses::total               20                       # number of ReadReq misses
system.iocache.demand_misses::realview.ide           20                       # number of demand (read+write) misses
system.iocache.demand_misses::total                20                       # number of demand (read+write) misses
system.iocache.overall_misses::realview.ide           20                       # number of overall misses
system.iocache.overall_misses::total               20                       # number of overall misses
system.iocache.ReadReq_accesses::realview.ide           20                       # number of ReadReq accesses(hits+misses)
system.iocache.ReadReq_accesses::total             20                       # number of ReadReq accesses(hits+misses)
system.iocache.WriteInvalidateReq_accesses::realview.ide         1072                       # number of WriteInvalidateReq accesses(hits+misses)
system.iocache.WriteInvalidateReq_accesses::total         1072                       # number of WriteInvalidateReq accesses(hits+misses)
system.iocache.demand_accesses::realview.ide           20                       # number of demand (read+write) accesses
system.iocache.demand_accesses::total              20                       # number of demand (read+write) accesses
system.iocache.overall_accesses::realview.ide           20                       # number of overall (read+write) accesses
system.iocache.overall_accesses::total             20                       # number of overall (read+write) accesses
system.iocache.ReadReq_miss_rate::realview.ide            1                       # miss rate for ReadReq accesses
system.iocache.ReadReq_miss_rate::total             1                       # miss rate for ReadReq accesses
system.iocache.demand_miss_rate::realview.ide            1                       # miss rate for demand accesses
system.iocache.demand_miss_rate::total              1                       # miss rate for demand accesses
system.iocache.overall_miss_rate::realview.ide            1                       # miss rate for overall accesses
system.iocache.overall_miss_rate::total             1                       # miss rate for overall accesses
system.iocache.blocked_cycles::no_mshrs             0                       # number of cycles access was blocked
system.iocache.blocked_cycles::no_targets            0                       # number of cycles access was blocked
system.iocache.blocked::no_mshrs                    0                       # number of cycles access was blocked
system.iocache.blocked::no_targets                  0                       # number of cycles access was blocked
system.iocache.avg_blocked_cycles::no_mshrs          nan                       # average number of cycles each access was blocked
system.iocache.avg_blocked_cycles::no_targets          nan                       # average number of cycles each access was blocked
system.iocache.fast_writes                       1072                       # number of fast writes performed
system.iocache.cache_copies                         0                       # number of cache copies performed
system.iocache.no_allocate_misses                   0                       # Number of misses that were no-allocate

---------- End Simulation Statistics   ----------
