
---------- Begin Simulation Statistics ----------
sim_seconds                                  0.032431                       # Number of seconds simulated
sim_ticks                                 32431183500                       # Number of ticks simulated
final_tick                               3228122891000                       # Number of ticks from beginning of simulation (restored from checkpoints and never reset)
sim_freq                                 1000000000000                       # Frequency of simulated ticks
host_inst_rate                                 216369                       # Simulator instruction rate (inst/s)
host_op_rate                                   226731                       # Simulator op (including micro ops) rate (op/s)
host_tick_rate                               18867179                       # Simulator tick rate (ticks/s)
host_mem_usage                                 981608                       # Number of bytes of host memory used
host_seconds                                  1718.92                       # Real time elapsed on the host
sim_insts                                   371921107                       # Number of instructions simulated
sim_ops                                     389733101                       # Number of ops (including micro ops) simulated
system.voltage_domain.voltage                       1                       # Voltage in Volts
system.clk_domain.clock                          1000                       # Clock period in ticks
system.mem_ctrls.bytes_read::switch_cpus0.dtb.walker        10176                       # Number of bytes read from this memory
system.mem_ctrls.bytes_read::switch_cpus0.itb.walker         2880                       # Number of bytes read from this memory
system.mem_ctrls.bytes_read::switch_cpus0.inst        49280                       # Number of bytes read from this memory
system.mem_ctrls.bytes_read::switch_cpus0.data       245632                       # Number of bytes read from this memory
system.mem_ctrls.bytes_read::switch_cpus1.dtb.walker         6912                       # Number of bytes read from this memory
system.mem_ctrls.bytes_read::switch_cpus1.itb.walker         3136                       # Number of bytes read from this memory
system.mem_ctrls.bytes_read::switch_cpus1.inst       108800                       # Number of bytes read from this memory
system.mem_ctrls.bytes_read::switch_cpus1.data       278656                       # Number of bytes read from this memory
system.mem_ctrls.bytes_read::switch_cpus2.dtb.walker         9984                       # Number of bytes read from this memory
system.mem_ctrls.bytes_read::switch_cpus2.itb.walker         3072                       # Number of bytes read from this memory
system.mem_ctrls.bytes_read::switch_cpus2.inst       358016                       # Number of bytes read from this memory
system.mem_ctrls.bytes_read::switch_cpus2.data      1218560                       # Number of bytes read from this memory
system.mem_ctrls.bytes_read::switch_cpus3.dtb.walker         4160                       # Number of bytes read from this memory
system.mem_ctrls.bytes_read::switch_cpus3.itb.walker         1600                       # Number of bytes read from this memory
system.mem_ctrls.bytes_read::switch_cpus3.inst        51392                       # Number of bytes read from this memory
system.mem_ctrls.bytes_read::switch_cpus3.data       192384                       # Number of bytes read from this memory
system.mem_ctrls.bytes_read::switch_cpus4.dtb.walker         2816                       # Number of bytes read from this memory
system.mem_ctrls.bytes_read::switch_cpus4.itb.walker          640                       # Number of bytes read from this memory
system.mem_ctrls.bytes_read::switch_cpus4.inst        11776                       # Number of bytes read from this memory
system.mem_ctrls.bytes_read::switch_cpus4.data       126848                       # Number of bytes read from this memory
system.mem_ctrls.bytes_read::switch_cpus5.dtb.walker        14016                       # Number of bytes read from this memory
system.mem_ctrls.bytes_read::switch_cpus5.itb.walker        10752                       # Number of bytes read from this memory
system.mem_ctrls.bytes_read::switch_cpus5.inst       151104                       # Number of bytes read from this memory
system.mem_ctrls.bytes_read::switch_cpus5.data       558528                       # Number of bytes read from this memory
system.mem_ctrls.bytes_read::switch_cpus6.dtb.walker         6592                       # Number of bytes read from this memory
system.mem_ctrls.bytes_read::switch_cpus6.itb.walker         5120                       # Number of bytes read from this memory
system.mem_ctrls.bytes_read::switch_cpus6.inst       124416                       # Number of bytes read from this memory
system.mem_ctrls.bytes_read::switch_cpus6.data       546368                       # Number of bytes read from this memory
system.mem_ctrls.bytes_read::switch_cpus7.dtb.walker         4352                       # Number of bytes read from this memory
system.mem_ctrls.bytes_read::switch_cpus7.itb.walker         2496                       # Number of bytes read from this memory
system.mem_ctrls.bytes_read::switch_cpus7.inst        75840                       # Number of bytes read from this memory
system.mem_ctrls.bytes_read::switch_cpus7.data       206784                       # Number of bytes read from this memory
system.mem_ctrls.bytes_read::l2.prefetcher     17052096                       # Number of bytes read from this memory
system.mem_ctrls.bytes_read::cpu0.inst            320                       # Number of bytes read from this memory
system.mem_ctrls.bytes_read::cpu0.data            256                       # Number of bytes read from this memory
system.mem_ctrls.bytes_read::cpu6.inst             64                       # Number of bytes read from this memory
system.mem_ctrls.bytes_read::cpu6.data            256                       # Number of bytes read from this memory
system.mem_ctrls.bytes_read::cpu7.inst            256                       # Number of bytes read from this memory
system.mem_ctrls.bytes_read::cpu7.data            192                       # Number of bytes read from this memory
system.mem_ctrls.bytes_read::total           21446528                       # Number of bytes read from this memory
system.mem_ctrls.bytes_inst_read::switch_cpus0.inst        49280                       # Number of instructions bytes read from this memory
system.mem_ctrls.bytes_inst_read::switch_cpus1.inst       108800                       # Number of instructions bytes read from this memory
system.mem_ctrls.bytes_inst_read::switch_cpus2.inst       358016                       # Number of instructions bytes read from this memory
system.mem_ctrls.bytes_inst_read::switch_cpus3.inst        51392                       # Number of instructions bytes read from this memory
system.mem_ctrls.bytes_inst_read::switch_cpus4.inst        11776                       # Number of instructions bytes read from this memory
system.mem_ctrls.bytes_inst_read::switch_cpus5.inst       151104                       # Number of instructions bytes read from this memory
system.mem_ctrls.bytes_inst_read::switch_cpus6.inst       124416                       # Number of instructions bytes read from this memory
system.mem_ctrls.bytes_inst_read::switch_cpus7.inst        75840                       # Number of instructions bytes read from this memory
system.mem_ctrls.bytes_inst_read::cpu0.inst          320                       # Number of instructions bytes read from this memory
system.mem_ctrls.bytes_inst_read::cpu6.inst           64                       # Number of instructions bytes read from this memory
system.mem_ctrls.bytes_inst_read::cpu7.inst          256                       # Number of instructions bytes read from this memory
system.mem_ctrls.bytes_inst_read::total        931264                       # Number of instructions bytes read from this memory
system.mem_ctrls.bytes_written::writebacks      7124736                       # Number of bytes written to this memory
system.mem_ctrls.bytes_written::realview.ide        12288                       # Number of bytes written to this memory
system.mem_ctrls.bytes_written::total         7137024                       # Number of bytes written to this memory
system.mem_ctrls.num_reads::switch_cpus0.dtb.walker          159                       # Number of read requests responded to by this memory
system.mem_ctrls.num_reads::switch_cpus0.itb.walker           45                       # Number of read requests responded to by this memory
system.mem_ctrls.num_reads::switch_cpus0.inst          770                       # Number of read requests responded to by this memory
system.mem_ctrls.num_reads::switch_cpus0.data         3838                       # Number of read requests responded to by this memory
system.mem_ctrls.num_reads::switch_cpus1.dtb.walker          108                       # Number of read requests responded to by this memory
system.mem_ctrls.num_reads::switch_cpus1.itb.walker           49                       # Number of read requests responded to by this memory
system.mem_ctrls.num_reads::switch_cpus1.inst         1700                       # Number of read requests responded to by this memory
system.mem_ctrls.num_reads::switch_cpus1.data         4354                       # Number of read requests responded to by this memory
system.mem_ctrls.num_reads::switch_cpus2.dtb.walker          156                       # Number of read requests responded to by this memory
system.mem_ctrls.num_reads::switch_cpus2.itb.walker           48                       # Number of read requests responded to by this memory
system.mem_ctrls.num_reads::switch_cpus2.inst         5594                       # Number of read requests responded to by this memory
system.mem_ctrls.num_reads::switch_cpus2.data        19040                       # Number of read requests responded to by this memory
system.mem_ctrls.num_reads::switch_cpus3.dtb.walker           65                       # Number of read requests responded to by this memory
system.mem_ctrls.num_reads::switch_cpus3.itb.walker           25                       # Number of read requests responded to by this memory
system.mem_ctrls.num_reads::switch_cpus3.inst          803                       # Number of read requests responded to by this memory
system.mem_ctrls.num_reads::switch_cpus3.data         3006                       # Number of read requests responded to by this memory
system.mem_ctrls.num_reads::switch_cpus4.dtb.walker           44                       # Number of read requests responded to by this memory
system.mem_ctrls.num_reads::switch_cpus4.itb.walker           10                       # Number of read requests responded to by this memory
system.mem_ctrls.num_reads::switch_cpus4.inst          184                       # Number of read requests responded to by this memory
system.mem_ctrls.num_reads::switch_cpus4.data         1982                       # Number of read requests responded to by this memory
system.mem_ctrls.num_reads::switch_cpus5.dtb.walker          219                       # Number of read requests responded to by this memory
system.mem_ctrls.num_reads::switch_cpus5.itb.walker          168                       # Number of read requests responded to by this memory
system.mem_ctrls.num_reads::switch_cpus5.inst         2361                       # Number of read requests responded to by this memory
system.mem_ctrls.num_reads::switch_cpus5.data         8727                       # Number of read requests responded to by this memory
system.mem_ctrls.num_reads::switch_cpus6.dtb.walker          103                       # Number of read requests responded to by this memory
system.mem_ctrls.num_reads::switch_cpus6.itb.walker           80                       # Number of read requests responded to by this memory
system.mem_ctrls.num_reads::switch_cpus6.inst         1944                       # Number of read requests responded to by this memory
system.mem_ctrls.num_reads::switch_cpus6.data         8537                       # Number of read requests responded to by this memory
system.mem_ctrls.num_reads::switch_cpus7.dtb.walker           68                       # Number of read requests responded to by this memory
system.mem_ctrls.num_reads::switch_cpus7.itb.walker           39                       # Number of read requests responded to by this memory
system.mem_ctrls.num_reads::switch_cpus7.inst         1185                       # Number of read requests responded to by this memory
system.mem_ctrls.num_reads::switch_cpus7.data         3231                       # Number of read requests responded to by this memory
system.mem_ctrls.num_reads::l2.prefetcher       266439                       # Number of read requests responded to by this memory
system.mem_ctrls.num_reads::cpu0.inst               5                       # Number of read requests responded to by this memory
system.mem_ctrls.num_reads::cpu0.data               4                       # Number of read requests responded to by this memory
system.mem_ctrls.num_reads::cpu6.inst               1                       # Number of read requests responded to by this memory
system.mem_ctrls.num_reads::cpu6.data               4                       # Number of read requests responded to by this memory
system.mem_ctrls.num_reads::cpu7.inst               4                       # Number of read requests responded to by this memory
system.mem_ctrls.num_reads::cpu7.data               3                       # Number of read requests responded to by this memory
system.mem_ctrls.num_reads::total              335102                       # Number of read requests responded to by this memory
system.mem_ctrls.num_writes::writebacks        111324                       # Number of write requests responded to by this memory
system.mem_ctrls.num_writes::realview.ide          192                       # Number of write requests responded to by this memory
system.mem_ctrls.num_writes::total             111516                       # Number of write requests responded to by this memory
system.mem_ctrls.bw_read::switch_cpus0.dtb.walker       313772                       # Total read bandwidth from this memory (bytes/s)
system.mem_ctrls.bw_read::switch_cpus0.itb.walker        88803                       # Total read bandwidth from this memory (bytes/s)
system.mem_ctrls.bw_read::switch_cpus0.inst      1519525                       # Total read bandwidth from this memory (bytes/s)
system.mem_ctrls.bw_read::switch_cpus0.data      7573945                       # Total read bandwidth from this memory (bytes/s)
system.mem_ctrls.bw_read::switch_cpus1.dtb.walker       213128                       # Total read bandwidth from this memory (bytes/s)
system.mem_ctrls.bw_read::switch_cpus1.itb.walker        96697                       # Total read bandwidth from this memory (bytes/s)
system.mem_ctrls.bw_read::switch_cpus1.inst      3354796                       # Total read bandwidth from this memory (bytes/s)
system.mem_ctrls.bw_read::switch_cpus1.data      8592224                       # Total read bandwidth from this memory (bytes/s)
system.mem_ctrls.bw_read::switch_cpus2.dtb.walker       307852                       # Total read bandwidth from this memory (bytes/s)
system.mem_ctrls.bw_read::switch_cpus2.itb.walker        94724                       # Total read bandwidth from this memory (bytes/s)
system.mem_ctrls.bw_read::switch_cpus2.inst     11039252                       # Total read bandwidth from this memory (bytes/s)
system.mem_ctrls.bw_read::switch_cpus2.data     37573714                       # Total read bandwidth from this memory (bytes/s)
system.mem_ctrls.bw_read::switch_cpus3.dtb.walker       128272                       # Total read bandwidth from this memory (bytes/s)
system.mem_ctrls.bw_read::switch_cpus3.itb.walker        49335                       # Total read bandwidth from this memory (bytes/s)
system.mem_ctrls.bw_read::switch_cpus3.inst      1584648                       # Total read bandwidth from this memory (bytes/s)
system.mem_ctrls.bw_read::switch_cpus3.data      5932068                       # Total read bandwidth from this memory (bytes/s)
system.mem_ctrls.bw_read::switch_cpus4.dtb.walker        86830                       # Total read bandwidth from this memory (bytes/s)
system.mem_ctrls.bw_read::switch_cpus4.itb.walker        19734                       # Total read bandwidth from this memory (bytes/s)
system.mem_ctrls.bw_read::switch_cpus4.inst       363107                       # Total read bandwidth from this memory (bytes/s)
system.mem_ctrls.bw_read::switch_cpus4.data      3911297                       # Total read bandwidth from this memory (bytes/s)
system.mem_ctrls.bw_read::switch_cpus5.dtb.walker       432177                       # Total read bandwidth from this memory (bytes/s)
system.mem_ctrls.bw_read::switch_cpus5.itb.walker       331533                       # Total read bandwidth from this memory (bytes/s)
system.mem_ctrls.bw_read::switch_cpus5.inst      4659219                       # Total read bandwidth from this memory (bytes/s)
system.mem_ctrls.bw_read::switch_cpus5.data     17221943                       # Total read bandwidth from this memory (bytes/s)
system.mem_ctrls.bw_read::switch_cpus6.dtb.walker       203261                       # Total read bandwidth from this memory (bytes/s)
system.mem_ctrls.bw_read::switch_cpus6.itb.walker       157873                       # Total read bandwidth from this memory (bytes/s)
system.mem_ctrls.bw_read::switch_cpus6.inst      3836308                       # Total read bandwidth from this memory (bytes/s)
system.mem_ctrls.bw_read::switch_cpus6.data     16846995                       # Total read bandwidth from this memory (bytes/s)
system.mem_ctrls.bw_read::switch_cpus7.dtb.walker       134192                       # Total read bandwidth from this memory (bytes/s)
system.mem_ctrls.bw_read::switch_cpus7.itb.walker        76963                       # Total read bandwidth from this memory (bytes/s)
system.mem_ctrls.bw_read::switch_cpus7.inst      2338490                       # Total read bandwidth from this memory (bytes/s)
system.mem_ctrls.bw_read::switch_cpus7.data      6376086                       # Total read bandwidth from this memory (bytes/s)
system.mem_ctrls.bw_read::l2.prefetcher     525793208                       # Total read bandwidth from this memory (bytes/s)
system.mem_ctrls.bw_read::cpu0.inst              9867                       # Total read bandwidth from this memory (bytes/s)
system.mem_ctrls.bw_read::cpu0.data              7894                       # Total read bandwidth from this memory (bytes/s)
system.mem_ctrls.bw_read::cpu6.inst              1973                       # Total read bandwidth from this memory (bytes/s)
system.mem_ctrls.bw_read::cpu6.data              7894                       # Total read bandwidth from this memory (bytes/s)
system.mem_ctrls.bw_read::cpu7.inst              7894                       # Total read bandwidth from this memory (bytes/s)
system.mem_ctrls.bw_read::cpu7.data              5920                       # Total read bandwidth from this memory (bytes/s)
system.mem_ctrls.bw_read::total             661293412                       # Total read bandwidth from this memory (bytes/s)
system.mem_ctrls.bw_inst_read::switch_cpus0.inst      1519525                       # Instruction read bandwidth from this memory (bytes/s)
system.mem_ctrls.bw_inst_read::switch_cpus1.inst      3354796                       # Instruction read bandwidth from this memory (bytes/s)
system.mem_ctrls.bw_inst_read::switch_cpus2.inst     11039252                       # Instruction read bandwidth from this memory (bytes/s)
system.mem_ctrls.bw_inst_read::switch_cpus3.inst      1584648                       # Instruction read bandwidth from this memory (bytes/s)
system.mem_ctrls.bw_inst_read::switch_cpus4.inst       363107                       # Instruction read bandwidth from this memory (bytes/s)
system.mem_ctrls.bw_inst_read::switch_cpus5.inst      4659219                       # Instruction read bandwidth from this memory (bytes/s)
system.mem_ctrls.bw_inst_read::switch_cpus6.inst      3836308                       # Instruction read bandwidth from this memory (bytes/s)
system.mem_ctrls.bw_inst_read::switch_cpus7.inst      2338490                       # Instruction read bandwidth from this memory (bytes/s)
system.mem_ctrls.bw_inst_read::cpu0.inst         9867                       # Instruction read bandwidth from this memory (bytes/s)
system.mem_ctrls.bw_inst_read::cpu6.inst         1973                       # Instruction read bandwidth from this memory (bytes/s)
system.mem_ctrls.bw_inst_read::cpu7.inst         7894                       # Instruction read bandwidth from this memory (bytes/s)
system.mem_ctrls.bw_inst_read::total         28715079                       # Instruction read bandwidth from this memory (bytes/s)
system.mem_ctrls.bw_write::writebacks       219687820                       # Write bandwidth from this memory (bytes/s)
system.mem_ctrls.bw_write::realview.ide        378895                       # Write bandwidth from this memory (bytes/s)
system.mem_ctrls.bw_write::total            220066714                       # Write bandwidth from this memory (bytes/s)
system.mem_ctrls.bw_total::writebacks       219687820                       # Total bandwidth to/from this memory (bytes/s)
system.mem_ctrls.bw_total::switch_cpus0.dtb.walker       313772                       # Total bandwidth to/from this memory (bytes/s)
system.mem_ctrls.bw_total::switch_cpus0.itb.walker        88803                       # Total bandwidth to/from this memory (bytes/s)
system.mem_ctrls.bw_total::switch_cpus0.inst      1519525                       # Total bandwidth to/from this memory (bytes/s)
system.mem_ctrls.bw_total::switch_cpus0.data      7573945                       # Total bandwidth to/from this memory (bytes/s)
system.mem_ctrls.bw_total::switch_cpus1.dtb.walker       213128                       # Total bandwidth to/from this memory (bytes/s)
system.mem_ctrls.bw_total::switch_cpus1.itb.walker        96697                       # Total bandwidth to/from this memory (bytes/s)
system.mem_ctrls.bw_total::switch_cpus1.inst      3354796                       # Total bandwidth to/from this memory (bytes/s)
system.mem_ctrls.bw_total::switch_cpus1.data      8592224                       # Total bandwidth to/from this memory (bytes/s)
system.mem_ctrls.bw_total::switch_cpus2.dtb.walker       307852                       # Total bandwidth to/from this memory (bytes/s)
system.mem_ctrls.bw_total::switch_cpus2.itb.walker        94724                       # Total bandwidth to/from this memory (bytes/s)
system.mem_ctrls.bw_total::switch_cpus2.inst     11039252                       # Total bandwidth to/from this memory (bytes/s)
system.mem_ctrls.bw_total::switch_cpus2.data     37573714                       # Total bandwidth to/from this memory (bytes/s)
system.mem_ctrls.bw_total::switch_cpus3.dtb.walker       128272                       # Total bandwidth to/from this memory (bytes/s)
system.mem_ctrls.bw_total::switch_cpus3.itb.walker        49335                       # Total bandwidth to/from this memory (bytes/s)
system.mem_ctrls.bw_total::switch_cpus3.inst      1584648                       # Total bandwidth to/from this memory (bytes/s)
system.mem_ctrls.bw_total::switch_cpus3.data      5932068                       # Total bandwidth to/from this memory (bytes/s)
system.mem_ctrls.bw_total::switch_cpus4.dtb.walker        86830                       # Total bandwidth to/from this memory (bytes/s)
system.mem_ctrls.bw_total::switch_cpus4.itb.walker        19734                       # Total bandwidth to/from this memory (bytes/s)
system.mem_ctrls.bw_total::switch_cpus4.inst       363107                       # Total bandwidth to/from this memory (bytes/s)
system.mem_ctrls.bw_total::switch_cpus4.data      3911297                       # Total bandwidth to/from this memory (bytes/s)
system.mem_ctrls.bw_total::switch_cpus5.dtb.walker       432177                       # Total bandwidth to/from this memory (bytes/s)
system.mem_ctrls.bw_total::switch_cpus5.itb.walker       331533                       # Total bandwidth to/from this memory (bytes/s)
system.mem_ctrls.bw_total::switch_cpus5.inst      4659219                       # Total bandwidth to/from this memory (bytes/s)
system.mem_ctrls.bw_total::switch_cpus5.data     17221943                       # Total bandwidth to/from this memory (bytes/s)
system.mem_ctrls.bw_total::switch_cpus6.dtb.walker       203261                       # Total bandwidth to/from this memory (bytes/s)
system.mem_ctrls.bw_total::switch_cpus6.itb.walker       157873                       # Total bandwidth to/from this memory (bytes/s)
system.mem_ctrls.bw_total::switch_cpus6.inst      3836308                       # Total bandwidth to/from this memory (bytes/s)
system.mem_ctrls.bw_total::switch_cpus6.data     16846995                       # Total bandwidth to/from this memory (bytes/s)
system.mem_ctrls.bw_total::switch_cpus7.dtb.walker       134192                       # Total bandwidth to/from this memory (bytes/s)
system.mem_ctrls.bw_total::switch_cpus7.itb.walker        76963                       # Total bandwidth to/from this memory (bytes/s)
system.mem_ctrls.bw_total::switch_cpus7.inst      2338490                       # Total bandwidth to/from this memory (bytes/s)
system.mem_ctrls.bw_total::switch_cpus7.data      6376086                       # Total bandwidth to/from this memory (bytes/s)
system.mem_ctrls.bw_total::realview.ide        378895                       # Total bandwidth to/from this memory (bytes/s)
system.mem_ctrls.bw_total::l2.prefetcher    525793208                       # Total bandwidth to/from this memory (bytes/s)
system.mem_ctrls.bw_total::cpu0.inst             9867                       # Total bandwidth to/from this memory (bytes/s)
system.mem_ctrls.bw_total::cpu0.data             7894                       # Total bandwidth to/from this memory (bytes/s)
system.mem_ctrls.bw_total::cpu6.inst             1973                       # Total bandwidth to/from this memory (bytes/s)
system.mem_ctrls.bw_total::cpu6.data             7894                       # Total bandwidth to/from this memory (bytes/s)
system.mem_ctrls.bw_total::cpu7.inst             7894                       # Total bandwidth to/from this memory (bytes/s)
system.mem_ctrls.bw_total::cpu7.data             5920                       # Total bandwidth to/from this memory (bytes/s)
system.mem_ctrls.bw_total::total            881360127                       # Total bandwidth to/from this memory (bytes/s)
system.mem_ctrls.readReqs                      335081                       # Number of read requests accepted
system.mem_ctrls.writeReqs                     111516                       # Number of write requests accepted
system.mem_ctrls.readBursts                    335081                       # Number of DRAM read bursts, including those serviced by the write queue
system.mem_ctrls.writeBursts                   111516                       # Number of DRAM write bursts, including those merged in the write queue
system.mem_ctrls.bytesReadDRAM               21416768                       # Total number of bytes read from DRAM
system.mem_ctrls.bytesReadWrQ                   28416                       # Total number of bytes read from write queue
system.mem_ctrls.bytesWritten                 7135296                       # Total number of bytes written to DRAM
system.mem_ctrls.bytesReadSys                21445184                       # Total read bytes from the system interface side
system.mem_ctrls.bytesWrittenSys              7137024                       # Total written bytes from the system interface side
system.mem_ctrls.servicedByWrQ                    444                       # Number of DRAM read bursts serviced by the write queue
system.mem_ctrls.mergedWrBursts                     0                       # Number of DRAM write bursts merged with an existing one
system.mem_ctrls.neitherReadNorWriteReqs        13401                       # Number of requests that are neither read nor write
system.mem_ctrls.perBankRdBursts::0             18674                       # Per bank write bursts
system.mem_ctrls.perBankRdBursts::1             21217                       # Per bank write bursts
system.mem_ctrls.perBankRdBursts::2             25968                       # Per bank write bursts
system.mem_ctrls.perBankRdBursts::3             29973                       # Per bank write bursts
system.mem_ctrls.perBankRdBursts::4             26904                       # Per bank write bursts
system.mem_ctrls.perBankRdBursts::5             21708                       # Per bank write bursts
system.mem_ctrls.perBankRdBursts::6             19516                       # Per bank write bursts
system.mem_ctrls.perBankRdBursts::7             22650                       # Per bank write bursts
system.mem_ctrls.perBankRdBursts::8             25497                       # Per bank write bursts
system.mem_ctrls.perBankRdBursts::9             25058                       # Per bank write bursts
system.mem_ctrls.perBankRdBursts::10            17029                       # Per bank write bursts
system.mem_ctrls.perBankRdBursts::11            16901                       # Per bank write bursts
system.mem_ctrls.perBankRdBursts::12            14794                       # Per bank write bursts
system.mem_ctrls.perBankRdBursts::13            12863                       # Per bank write bursts
system.mem_ctrls.perBankRdBursts::14            16755                       # Per bank write bursts
system.mem_ctrls.perBankRdBursts::15            19130                       # Per bank write bursts
system.mem_ctrls.perBankWrBursts::0              7087                       # Per bank write bursts
system.mem_ctrls.perBankWrBursts::1              6776                       # Per bank write bursts
system.mem_ctrls.perBankWrBursts::2              8263                       # Per bank write bursts
system.mem_ctrls.perBankWrBursts::3              8624                       # Per bank write bursts
system.mem_ctrls.perBankWrBursts::4              8433                       # Per bank write bursts
system.mem_ctrls.perBankWrBursts::5              7643                       # Per bank write bursts
system.mem_ctrls.perBankWrBursts::6              6670                       # Per bank write bursts
system.mem_ctrls.perBankWrBursts::7              6688                       # Per bank write bursts
system.mem_ctrls.perBankWrBursts::8              7992                       # Per bank write bursts
system.mem_ctrls.perBankWrBursts::9              7335                       # Per bank write bursts
system.mem_ctrls.perBankWrBursts::10             5902                       # Per bank write bursts
system.mem_ctrls.perBankWrBursts::11             6067                       # Per bank write bursts
system.mem_ctrls.perBankWrBursts::12             6090                       # Per bank write bursts
system.mem_ctrls.perBankWrBursts::13             5210                       # Per bank write bursts
system.mem_ctrls.perBankWrBursts::14             5973                       # Per bank write bursts
system.mem_ctrls.perBankWrBursts::15             6736                       # Per bank write bursts
system.mem_ctrls.numRdRetry                         0                       # Number of times read queue was full causing retry
system.mem_ctrls.numWrRetry                         1                       # Number of times write queue was full causing retry
system.mem_ctrls.totGap                   32431026500                       # Total gap between requests
system.mem_ctrls.readPktSize::0                     0                       # Read request sizes (log2)
system.mem_ctrls.readPktSize::1                     0                       # Read request sizes (log2)
system.mem_ctrls.readPktSize::2                     0                       # Read request sizes (log2)
system.mem_ctrls.readPktSize::3                     0                       # Read request sizes (log2)
system.mem_ctrls.readPktSize::4                     0                       # Read request sizes (log2)
system.mem_ctrls.readPktSize::5                     0                       # Read request sizes (log2)
system.mem_ctrls.readPktSize::6                335081                       # Read request sizes (log2)
system.mem_ctrls.writePktSize::0                    0                       # Write request sizes (log2)
system.mem_ctrls.writePktSize::1                    0                       # Write request sizes (log2)
system.mem_ctrls.writePktSize::2                    0                       # Write request sizes (log2)
system.mem_ctrls.writePktSize::3                    0                       # Write request sizes (log2)
system.mem_ctrls.writePktSize::4                    0                       # Write request sizes (log2)
system.mem_ctrls.writePktSize::5                    0                       # Write request sizes (log2)
system.mem_ctrls.writePktSize::6               111516                       # Write request sizes (log2)
system.mem_ctrls.rdQLenPdf::0                  118326                       # What read queue length does an incoming req see
system.mem_ctrls.rdQLenPdf::1                   76549                       # What read queue length does an incoming req see
system.mem_ctrls.rdQLenPdf::2                   37184                       # What read queue length does an incoming req see
system.mem_ctrls.rdQLenPdf::3                   26070                       # What read queue length does an incoming req see
system.mem_ctrls.rdQLenPdf::4                   19084                       # What read queue length does an incoming req see
system.mem_ctrls.rdQLenPdf::5                   15302                       # What read queue length does an incoming req see
system.mem_ctrls.rdQLenPdf::6                   12191                       # What read queue length does an incoming req see
system.mem_ctrls.rdQLenPdf::7                    9826                       # What read queue length does an incoming req see
system.mem_ctrls.rdQLenPdf::8                    7802                       # What read queue length does an incoming req see
system.mem_ctrls.rdQLenPdf::9                    4185                       # What read queue length does an incoming req see
system.mem_ctrls.rdQLenPdf::10                   2760                       # What read queue length does an incoming req see
system.mem_ctrls.rdQLenPdf::11                   2095                       # What read queue length does an incoming req see
system.mem_ctrls.rdQLenPdf::12                   1298                       # What read queue length does an incoming req see
system.mem_ctrls.rdQLenPdf::13                    873                       # What read queue length does an incoming req see
system.mem_ctrls.rdQLenPdf::14                    648                       # What read queue length does an incoming req see
system.mem_ctrls.rdQLenPdf::15                    444                       # What read queue length does an incoming req see
system.mem_ctrls.rdQLenPdf::16                      0                       # What read queue length does an incoming req see
system.mem_ctrls.rdQLenPdf::17                      0                       # What read queue length does an incoming req see
system.mem_ctrls.rdQLenPdf::18                      0                       # What read queue length does an incoming req see
system.mem_ctrls.rdQLenPdf::19                      0                       # What read queue length does an incoming req see
system.mem_ctrls.rdQLenPdf::20                      0                       # What read queue length does an incoming req see
system.mem_ctrls.rdQLenPdf::21                      0                       # What read queue length does an incoming req see
system.mem_ctrls.rdQLenPdf::22                      0                       # What read queue length does an incoming req see
system.mem_ctrls.rdQLenPdf::23                      0                       # What read queue length does an incoming req see
system.mem_ctrls.rdQLenPdf::24                      0                       # What read queue length does an incoming req see
system.mem_ctrls.rdQLenPdf::25                      0                       # What read queue length does an incoming req see
system.mem_ctrls.rdQLenPdf::26                      0                       # What read queue length does an incoming req see
system.mem_ctrls.rdQLenPdf::27                      0                       # What read queue length does an incoming req see
system.mem_ctrls.rdQLenPdf::28                      0                       # What read queue length does an incoming req see
system.mem_ctrls.rdQLenPdf::29                      0                       # What read queue length does an incoming req see
system.mem_ctrls.rdQLenPdf::30                      0                       # What read queue length does an incoming req see
system.mem_ctrls.rdQLenPdf::31                      0                       # What read queue length does an incoming req see
system.mem_ctrls.wrQLenPdf::0                       1                       # What write queue length does an incoming req see
system.mem_ctrls.wrQLenPdf::1                       1                       # What write queue length does an incoming req see
system.mem_ctrls.wrQLenPdf::2                       1                       # What write queue length does an incoming req see
system.mem_ctrls.wrQLenPdf::3                       1                       # What write queue length does an incoming req see
system.mem_ctrls.wrQLenPdf::4                       1                       # What write queue length does an incoming req see
system.mem_ctrls.wrQLenPdf::5                       1                       # What write queue length does an incoming req see
system.mem_ctrls.wrQLenPdf::6                       1                       # What write queue length does an incoming req see
system.mem_ctrls.wrQLenPdf::7                       1                       # What write queue length does an incoming req see
system.mem_ctrls.wrQLenPdf::8                       1                       # What write queue length does an incoming req see
system.mem_ctrls.wrQLenPdf::9                       1                       # What write queue length does an incoming req see
system.mem_ctrls.wrQLenPdf::10                      1                       # What write queue length does an incoming req see
system.mem_ctrls.wrQLenPdf::11                      1                       # What write queue length does an incoming req see
system.mem_ctrls.wrQLenPdf::12                      1                       # What write queue length does an incoming req see
system.mem_ctrls.wrQLenPdf::13                      1                       # What write queue length does an incoming req see
system.mem_ctrls.wrQLenPdf::14                      1                       # What write queue length does an incoming req see
system.mem_ctrls.wrQLenPdf::15                   1904                       # What write queue length does an incoming req see
system.mem_ctrls.wrQLenPdf::16                   2032                       # What write queue length does an incoming req see
system.mem_ctrls.wrQLenPdf::17                   3543                       # What write queue length does an incoming req see
system.mem_ctrls.wrQLenPdf::18                   4438                       # What write queue length does an incoming req see
system.mem_ctrls.wrQLenPdf::19                   5066                       # What write queue length does an incoming req see
system.mem_ctrls.wrQLenPdf::20                   5581                       # What write queue length does an incoming req see
system.mem_ctrls.wrQLenPdf::21                   6041                       # What write queue length does an incoming req see
system.mem_ctrls.wrQLenPdf::22                   6459                       # What write queue length does an incoming req see
system.mem_ctrls.wrQLenPdf::23                   6811                       # What write queue length does an incoming req see
system.mem_ctrls.wrQLenPdf::24                   7094                       # What write queue length does an incoming req see
system.mem_ctrls.wrQLenPdf::25                   7435                       # What write queue length does an incoming req see
system.mem_ctrls.wrQLenPdf::26                   7689                       # What write queue length does an incoming req see
system.mem_ctrls.wrQLenPdf::27                   8058                       # What write queue length does an incoming req see
system.mem_ctrls.wrQLenPdf::28                   8413                       # What write queue length does an incoming req see
system.mem_ctrls.wrQLenPdf::29                   7799                       # What write queue length does an incoming req see
system.mem_ctrls.wrQLenPdf::30                   7644                       # What write queue length does an incoming req see
system.mem_ctrls.wrQLenPdf::31                   7396                       # What write queue length does an incoming req see
system.mem_ctrls.wrQLenPdf::32                   7032                       # What write queue length does an incoming req see
system.mem_ctrls.wrQLenPdf::33                    386                       # What write queue length does an incoming req see
system.mem_ctrls.wrQLenPdf::34                    185                       # What write queue length does an incoming req see
system.mem_ctrls.wrQLenPdf::35                    119                       # What write queue length does an incoming req see
system.mem_ctrls.wrQLenPdf::36                     72                       # What write queue length does an incoming req see
system.mem_ctrls.wrQLenPdf::37                     54                       # What write queue length does an incoming req see
system.mem_ctrls.wrQLenPdf::38                     48                       # What write queue length does an incoming req see
system.mem_ctrls.wrQLenPdf::39                     39                       # What write queue length does an incoming req see
system.mem_ctrls.wrQLenPdf::40                     31                       # What write queue length does an incoming req see
system.mem_ctrls.wrQLenPdf::41                     24                       # What write queue length does an incoming req see
system.mem_ctrls.wrQLenPdf::42                     12                       # What write queue length does an incoming req see
system.mem_ctrls.wrQLenPdf::43                      8                       # What write queue length does an incoming req see
system.mem_ctrls.wrQLenPdf::44                      7                       # What write queue length does an incoming req see
system.mem_ctrls.wrQLenPdf::45                      6                       # What write queue length does an incoming req see
system.mem_ctrls.wrQLenPdf::46                      9                       # What write queue length does an incoming req see
system.mem_ctrls.wrQLenPdf::47                      4                       # What write queue length does an incoming req see
system.mem_ctrls.wrQLenPdf::48                      7                       # What write queue length does an incoming req see
system.mem_ctrls.wrQLenPdf::49                      5                       # What write queue length does an incoming req see
system.mem_ctrls.wrQLenPdf::50                      3                       # What write queue length does an incoming req see
system.mem_ctrls.wrQLenPdf::51                      3                       # What write queue length does an incoming req see
system.mem_ctrls.wrQLenPdf::52                      3                       # What write queue length does an incoming req see
system.mem_ctrls.wrQLenPdf::53                      2                       # What write queue length does an incoming req see
system.mem_ctrls.wrQLenPdf::54                      3                       # What write queue length does an incoming req see
system.mem_ctrls.wrQLenPdf::55                      7                       # What write queue length does an incoming req see
system.mem_ctrls.wrQLenPdf::56                      7                       # What write queue length does an incoming req see
system.mem_ctrls.wrQLenPdf::57                      5                       # What write queue length does an incoming req see
system.mem_ctrls.wrQLenPdf::58                      4                       # What write queue length does an incoming req see
system.mem_ctrls.wrQLenPdf::59                      5                       # What write queue length does an incoming req see
system.mem_ctrls.wrQLenPdf::60                      2                       # What write queue length does an incoming req see
system.mem_ctrls.wrQLenPdf::61                      3                       # What write queue length does an incoming req see
system.mem_ctrls.wrQLenPdf::62                      1                       # What write queue length does an incoming req see
system.mem_ctrls.wrQLenPdf::63                      2                       # What write queue length does an incoming req see
system.mem_ctrls.bytesPerActivate::samples       178150                       # Bytes accessed per row activation
system.mem_ctrls.bytesPerActivate::mean    160.268358                       # Bytes accessed per row activation
system.mem_ctrls.bytesPerActivate::gmean   107.460550                       # Bytes accessed per row activation
system.mem_ctrls.bytesPerActivate::stdev   199.701574                       # Bytes accessed per row activation
system.mem_ctrls.bytesPerActivate::0-127       108543     60.93%     60.93% # Bytes accessed per row activation
system.mem_ctrls.bytesPerActivate::128-255        38734     21.74%     82.67% # Bytes accessed per row activation
system.mem_ctrls.bytesPerActivate::256-383        11859      6.66%     89.33% # Bytes accessed per row activation
system.mem_ctrls.bytesPerActivate::384-511         6355      3.57%     92.89% # Bytes accessed per row activation
system.mem_ctrls.bytesPerActivate::512-639         4173      2.34%     95.24% # Bytes accessed per row activation
system.mem_ctrls.bytesPerActivate::640-767         1971      1.11%     96.34% # Bytes accessed per row activation
system.mem_ctrls.bytesPerActivate::768-895         1132      0.64%     96.98% # Bytes accessed per row activation
system.mem_ctrls.bytesPerActivate::896-1023          815      0.46%     97.44% # Bytes accessed per row activation
system.mem_ctrls.bytesPerActivate::1024-1151         4568      2.56%    100.00% # Bytes accessed per row activation
system.mem_ctrls.bytesPerActivate::total       178150                       # Bytes accessed per row activation
system.mem_ctrls.rdPerTurnAround::samples         6636                       # Reads before turning the bus around for writes
system.mem_ctrls.rdPerTurnAround::mean      50.419831                       # Reads before turning the bus around for writes
system.mem_ctrls.rdPerTurnAround::gmean     38.388518                       # Reads before turning the bus around for writes
system.mem_ctrls.rdPerTurnAround::stdev    243.450204                       # Reads before turning the bus around for writes
system.mem_ctrls.rdPerTurnAround::0-1023         6635     99.98%     99.98% # Reads before turning the bus around for writes
system.mem_ctrls.rdPerTurnAround::19456-20479            1      0.02%    100.00% # Reads before turning the bus around for writes
system.mem_ctrls.rdPerTurnAround::total          6636                       # Reads before turning the bus around for writes
system.mem_ctrls.wrPerTurnAround::samples         6636                       # Writes before turning the bus around for reads
system.mem_ctrls.wrPerTurnAround::mean      16.800633                       # Writes before turning the bus around for reads
system.mem_ctrls.wrPerTurnAround::gmean     16.749661                       # Writes before turning the bus around for reads
system.mem_ctrls.wrPerTurnAround::stdev      1.383139                       # Writes before turning the bus around for reads
system.mem_ctrls.wrPerTurnAround::16             4523     68.16%     68.16% # Writes before turning the bus around for reads
system.mem_ctrls.wrPerTurnAround::17              124      1.87%     70.03% # Writes before turning the bus around for reads
system.mem_ctrls.wrPerTurnAround::18             1351     20.36%     90.39% # Writes before turning the bus around for reads
system.mem_ctrls.wrPerTurnAround::19              382      5.76%     96.14% # Writes before turning the bus around for reads
system.mem_ctrls.wrPerTurnAround::20              129      1.94%     98.09% # Writes before turning the bus around for reads
system.mem_ctrls.wrPerTurnAround::21               51      0.77%     98.85% # Writes before turning the bus around for reads
system.mem_ctrls.wrPerTurnAround::22               36      0.54%     99.40% # Writes before turning the bus around for reads
system.mem_ctrls.wrPerTurnAround::23               15      0.23%     99.62% # Writes before turning the bus around for reads
system.mem_ctrls.wrPerTurnAround::24               11      0.17%     99.79% # Writes before turning the bus around for reads
system.mem_ctrls.wrPerTurnAround::25                3      0.05%     99.83% # Writes before turning the bus around for reads
system.mem_ctrls.wrPerTurnAround::26                2      0.03%     99.86% # Writes before turning the bus around for reads
system.mem_ctrls.wrPerTurnAround::27                2      0.03%     99.89% # Writes before turning the bus around for reads
system.mem_ctrls.wrPerTurnAround::28                3      0.05%     99.94% # Writes before turning the bus around for reads
system.mem_ctrls.wrPerTurnAround::29                2      0.03%     99.97% # Writes before turning the bus around for reads
system.mem_ctrls.wrPerTurnAround::30                1      0.02%     99.98% # Writes before turning the bus around for reads
system.mem_ctrls.wrPerTurnAround::32                1      0.02%    100.00% # Writes before turning the bus around for reads
system.mem_ctrls.wrPerTurnAround::total          6636                       # Writes before turning the bus around for reads
system.mem_ctrls.totQLat                  11926023530                       # Total ticks spent queuing
system.mem_ctrls.totMemAccLat             18200467280                       # Total ticks spent from burst creation until serviced by the DRAM
system.mem_ctrls.totBusLat                 1673185000                       # Total ticks spent in databus transfers
system.mem_ctrls.avgQLat                     35638.69                       # Average queueing delay per DRAM burst
system.mem_ctrls.avgBusLat                    5000.00                       # Average bus latency per DRAM burst
system.mem_ctrls.avgMemAccLat                54388.69                       # Average memory access latency per DRAM burst
system.mem_ctrls.avgRdBW                       660.38                       # Average DRAM read bandwidth in MiByte/s
system.mem_ctrls.avgWrBW                       220.01                       # Average achieved write bandwidth in MiByte/s
system.mem_ctrls.avgRdBWSys                    661.25                       # Average system read bandwidth in MiByte/s
system.mem_ctrls.avgWrBWSys                    220.07                       # Average system write bandwidth in MiByte/s
system.mem_ctrls.peakBW                      12800.00                       # Theoretical peak bandwidth in MiByte/s
system.mem_ctrls.busUtil                         6.88                       # Data bus utilization in percentage
system.mem_ctrls.busUtilRead                     5.16                       # Data bus utilization in percentage for reads
system.mem_ctrls.busUtilWrite                    1.72                       # Data bus utilization in percentage for writes
system.mem_ctrls.avgRdQLen                       2.11                       # Average read queue length when enqueuing
system.mem_ctrls.avgWrQLen                      24.77                       # Average write queue length when enqueuing
system.mem_ctrls.readRowHits                   234404                       # Number of row buffer hits during reads
system.mem_ctrls.writeRowHits                   33569                       # Number of row buffer hits during writes
system.mem_ctrls.readRowHitRate                 70.05                       # Row buffer hit rate for reads
system.mem_ctrls.writeRowHitRate                30.10                       # Row buffer hit rate for writes
system.mem_ctrls.avgGap                      72618.10                       # Average gap between requests
system.mem_ctrls.pageHitRate                    60.06                       # Row buffer hit rate, read and write combined
system.mem_ctrls.memoryStateTime::IDLE     1109279300                       # Time in different power states
system.mem_ctrls.memoryStateTime::REF      1082900000                       # Time in different power states
system.mem_ctrls.memoryStateTime::PRE_PDN            0                       # Time in different power states
system.mem_ctrls.memoryStateTime::ACT     30237825700                       # Time in different power states
system.mem_ctrls.memoryStateTime::ACT_PDN            0                       # Time in different power states
system.mem_ctrls.actEnergy::0               752514840                       # Energy for activate commands per rank (pJ)
system.mem_ctrls.actEnergy::1               594291600                       # Energy for activate commands per rank (pJ)
system.mem_ctrls.preEnergy::0               410598375                       # Energy for precharge commands per rank (pJ)
system.mem_ctrls.preEnergy::1               324266250                       # Energy for precharge commands per rank (pJ)
system.mem_ctrls.readEnergy::0             1455534600                       # Energy for read commands per rank (pJ)
system.mem_ctrls.readEnergy::1             1154595000                       # Energy for read commands per rank (pJ)
system.mem_ctrls.writeEnergy::0             389992320                       # Energy for write commands per rank (pJ)
system.mem_ctrls.writeEnergy::1             332456400                       # Energy for write commands per rank (pJ)
system.mem_ctrls.refreshEnergy::0          2118152400                       # Energy for refresh commands per rank (pJ)
system.mem_ctrls.refreshEnergy::1          2118152400                       # Energy for refresh commands per rank (pJ)
system.mem_ctrls.actBackEnergy::0         20412863370                       # Energy for active background per rank (pJ)
system.mem_ctrls.actBackEnergy::1         19655482140                       # Energy for active background per rank (pJ)
system.mem_ctrls.preBackEnergy::0          1551974250                       # Energy for precharge background per rank (pJ)
system.mem_ctrls.preBackEnergy::1          2216343750                       # Energy for precharge background per rank (pJ)
system.mem_ctrls.totalEnergy::0           27091630155                       # Total energy per rank (pJ)
system.mem_ctrls.totalEnergy::1           26395587540                       # Total energy per rank (pJ)
system.mem_ctrls.averagePower::0           835.388143                       # Core power per rank (mW)
system.mem_ctrls.averagePower::1           813.925213                       # Core power per rank (mW)
system.cpu_voltage_domain.voltage                   1                       # Voltage in Volts
system.cpu_clk_domain.clock                       500                       # Clock period in ticks
system.tol2bus.trans_dist::ReadReq            1250153                       # Transaction distribution
system.tol2bus.trans_dist::ReadResp           1250153                       # Transaction distribution
system.tol2bus.trans_dist::WriteReq               584                       # Transaction distribution
system.tol2bus.trans_dist::WriteResp              584                       # Transaction distribution
system.tol2bus.trans_dist::Writeback           293537                       # Transaction distribution
system.tol2bus.trans_dist::HardPFReq           494654                       # Transaction distribution
system.tol2bus.trans_dist::HardPFResp               1                       # Transaction distribution
system.tol2bus.trans_dist::WriteInvalidateReq          193                       # Transaction distribution
system.tol2bus.trans_dist::UpgradeReq           21603                       # Transaction distribution
system.tol2bus.trans_dist::SCUpgradeReq         11208                       # Transaction distribution
system.tol2bus.trans_dist::UpgradeResp          32811                       # Transaction distribution
system.tol2bus.trans_dist::SCUpgradeFailReq            1                       # Transaction distribution
system.tol2bus.trans_dist::UpgradeFailResp            1                       # Transaction distribution
system.tol2bus.trans_dist::ReadExReq           189937                       # Transaction distribution
system.tol2bus.trans_dist::ReadExResp          189937                       # Transaction distribution
system.tol2bus.pkt_count_system.cpu0.icache.mem_side::system.l2.cpu_side        46008                       # Packet count per connected master and slave (bytes)
system.tol2bus.pkt_count_system.cpu0.dcache.mem_side::system.l2.cpu_side       169359                       # Packet count per connected master and slave (bytes)
system.tol2bus.pkt_count_system.cpu0.itb.walker.dma::system.l2.cpu_side         6643                       # Packet count per connected master and slave (bytes)
system.tol2bus.pkt_count_system.cpu0.dtb.walker.dma::system.l2.cpu_side        19581                       # Packet count per connected master and slave (bytes)
system.tol2bus.pkt_count_system.cpu1.icache.mem_side::system.l2.cpu_side        89990                       # Packet count per connected master and slave (bytes)
system.tol2bus.pkt_count_system.cpu1.dcache.mem_side::system.l2.cpu_side       101629                       # Packet count per connected master and slave (bytes)
system.tol2bus.pkt_count_system.cpu1.itb.walker.dma::system.l2.cpu_side         8436                       # Packet count per connected master and slave (bytes)
system.tol2bus.pkt_count_system.cpu1.dtb.walker.dma::system.l2.cpu_side        19734                       # Packet count per connected master and slave (bytes)
system.tol2bus.pkt_count_system.cpu2.icache.mem_side::system.l2.cpu_side       674754                       # Packet count per connected master and slave (bytes)
system.tol2bus.pkt_count_system.cpu2.dcache.mem_side::system.l2.cpu_side       518990                       # Packet count per connected master and slave (bytes)
system.tol2bus.pkt_count_system.cpu2.itb.walker.dma::system.l2.cpu_side        18607                       # Packet count per connected master and slave (bytes)
system.tol2bus.pkt_count_system.cpu2.dtb.walker.dma::system.l2.cpu_side        86411                       # Packet count per connected master and slave (bytes)
system.tol2bus.pkt_count_system.cpu3.icache.mem_side::system.l2.cpu_side        16966                       # Packet count per connected master and slave (bytes)
system.tol2bus.pkt_count_system.cpu3.dcache.mem_side::system.l2.cpu_side        44079                       # Packet count per connected master and slave (bytes)
system.tol2bus.pkt_count_system.cpu3.itb.walker.dma::system.l2.cpu_side         1233                       # Packet count per connected master and slave (bytes)
system.tol2bus.pkt_count_system.cpu3.dtb.walker.dma::system.l2.cpu_side         8615                       # Packet count per connected master and slave (bytes)
system.tol2bus.pkt_count_system.cpu4.icache.mem_side::system.l2.cpu_side         8750                       # Packet count per connected master and slave (bytes)
system.tol2bus.pkt_count_system.cpu4.dcache.mem_side::system.l2.cpu_side        33363                       # Packet count per connected master and slave (bytes)
system.tol2bus.pkt_count_system.cpu4.itb.walker.dma::system.l2.cpu_side          984                       # Packet count per connected master and slave (bytes)
system.tol2bus.pkt_count_system.cpu4.dtb.walker.dma::system.l2.cpu_side         7673                       # Packet count per connected master and slave (bytes)
system.tol2bus.pkt_count_system.cpu5.icache.mem_side::system.l2.cpu_side       154612                       # Packet count per connected master and slave (bytes)
system.tol2bus.pkt_count_system.cpu5.dcache.mem_side::system.l2.cpu_side       181474                       # Packet count per connected master and slave (bytes)
system.tol2bus.pkt_count_system.cpu5.itb.walker.dma::system.l2.cpu_side         7477                       # Packet count per connected master and slave (bytes)
system.tol2bus.pkt_count_system.cpu5.dtb.walker.dma::system.l2.cpu_side        25166                       # Packet count per connected master and slave (bytes)
system.tol2bus.pkt_count_system.cpu6.icache.mem_side::system.l2.cpu_side       239518                       # Packet count per connected master and slave (bytes)
system.tol2bus.pkt_count_system.cpu6.dcache.mem_side::system.l2.cpu_side       335979                       # Packet count per connected master and slave (bytes)
system.tol2bus.pkt_count_system.cpu6.itb.walker.dma::system.l2.cpu_side        13175                       # Packet count per connected master and slave (bytes)
system.tol2bus.pkt_count_system.cpu6.dtb.walker.dma::system.l2.cpu_side        35339                       # Packet count per connected master and slave (bytes)
system.tol2bus.pkt_count_system.cpu7.icache.mem_side::system.l2.cpu_side        90880                       # Packet count per connected master and slave (bytes)
system.tol2bus.pkt_count_system.cpu7.dcache.mem_side::system.l2.cpu_side       103774                       # Packet count per connected master and slave (bytes)
system.tol2bus.pkt_count_system.cpu7.itb.walker.dma::system.l2.cpu_side         8658                       # Packet count per connected master and slave (bytes)
system.tol2bus.pkt_count_system.cpu7.dtb.walker.dma::system.l2.cpu_side        20818                       # Packet count per connected master and slave (bytes)
system.tol2bus.pkt_count::total               3098675                       # Packet count per connected master and slave (bytes)
system.tol2bus.pkt_size_system.cpu0.icache.mem_side::system.l2.cpu_side      1472256                       # Cumulative packet size per connected master and slave (bytes)
system.tol2bus.pkt_size_system.cpu0.dcache.mem_side::system.l2.cpu_side      6765155                       # Cumulative packet size per connected master and slave (bytes)
system.tol2bus.pkt_size_system.cpu0.itb.walker.dma::system.l2.cpu_side        13144                       # Cumulative packet size per connected master and slave (bytes)
system.tol2bus.pkt_size_system.cpu0.dtb.walker.dma::system.l2.cpu_side        34704                       # Cumulative packet size per connected master and slave (bytes)
system.tol2bus.pkt_size_system.cpu1.icache.mem_side::system.l2.cpu_side      2879680                       # Cumulative packet size per connected master and slave (bytes)
system.tol2bus.pkt_size_system.cpu1.dcache.mem_side::system.l2.cpu_side      3227980                       # Cumulative packet size per connected master and slave (bytes)
system.tol2bus.pkt_size_system.cpu1.itb.walker.dma::system.l2.cpu_side         8424                       # Cumulative packet size per connected master and slave (bytes)
system.tol2bus.pkt_size_system.cpu1.dtb.walker.dma::system.l2.cpu_side        26540                       # Cumulative packet size per connected master and slave (bytes)
system.tol2bus.pkt_size_system.cpu2.icache.mem_side::system.l2.cpu_side     21591744                       # Cumulative packet size per connected master and slave (bytes)
system.tol2bus.pkt_size_system.cpu2.dcache.mem_side::system.l2.cpu_side     18895900                       # Cumulative packet size per connected master and slave (bytes)
system.tol2bus.pkt_size_system.cpu2.itb.walker.dma::system.l2.cpu_side        26644                       # Cumulative packet size per connected master and slave (bytes)
system.tol2bus.pkt_size_system.cpu2.dtb.walker.dma::system.l2.cpu_side       132676                       # Cumulative packet size per connected master and slave (bytes)
system.tol2bus.pkt_size_system.cpu3.icache.mem_side::system.l2.cpu_side       542912                       # Cumulative packet size per connected master and slave (bytes)
system.tol2bus.pkt_size_system.cpu3.dcache.mem_side::system.l2.cpu_side      1513552                       # Cumulative packet size per connected master and slave (bytes)
system.tol2bus.pkt_size_system.cpu3.itb.walker.dma::system.l2.cpu_side         2136                       # Cumulative packet size per connected master and slave (bytes)
system.tol2bus.pkt_size_system.cpu3.dtb.walker.dma::system.l2.cpu_side        16624                       # Cumulative packet size per connected master and slave (bytes)
system.tol2bus.pkt_size_system.cpu4.icache.mem_side::system.l2.cpu_side       280000                       # Cumulative packet size per connected master and slave (bytes)
system.tol2bus.pkt_size_system.cpu4.dcache.mem_side::system.l2.cpu_side      1092648                       # Cumulative packet size per connected master and slave (bytes)
system.tol2bus.pkt_size_system.cpu4.itb.walker.dma::system.l2.cpu_side         1460                       # Cumulative packet size per connected master and slave (bytes)
system.tol2bus.pkt_size_system.cpu4.dtb.walker.dma::system.l2.cpu_side        14480                       # Cumulative packet size per connected master and slave (bytes)
system.tol2bus.pkt_size_system.cpu5.icache.mem_side::system.l2.cpu_side      4947200                       # Cumulative packet size per connected master and slave (bytes)
system.tol2bus.pkt_size_system.cpu5.dcache.mem_side::system.l2.cpu_side      6700136                       # Cumulative packet size per connected master and slave (bytes)
system.tol2bus.pkt_size_system.cpu5.itb.walker.dma::system.l2.cpu_side        14332                       # Cumulative packet size per connected master and slave (bytes)
system.tol2bus.pkt_size_system.cpu5.dtb.walker.dma::system.l2.cpu_side        46640                       # Cumulative packet size per connected master and slave (bytes)
system.tol2bus.pkt_size_system.cpu6.icache.mem_side::system.l2.cpu_side      7664576                       # Cumulative packet size per connected master and slave (bytes)
system.tol2bus.pkt_size_system.cpu6.dcache.mem_side::system.l2.cpu_side     12163656                       # Cumulative packet size per connected master and slave (bytes)
system.tol2bus.pkt_size_system.cpu6.itb.walker.dma::system.l2.cpu_side        17224                       # Cumulative packet size per connected master and slave (bytes)
system.tol2bus.pkt_size_system.cpu6.dtb.walker.dma::system.l2.cpu_side        53032                       # Cumulative packet size per connected master and slave (bytes)
system.tol2bus.pkt_size_system.cpu7.icache.mem_side::system.l2.cpu_side      2908160                       # Cumulative packet size per connected master and slave (bytes)
system.tol2bus.pkt_size_system.cpu7.dcache.mem_side::system.l2.cpu_side      3398504                       # Cumulative packet size per connected master and slave (bytes)
system.tol2bus.pkt_size_system.cpu7.itb.walker.dma::system.l2.cpu_side         8888                       # Cumulative packet size per connected master and slave (bytes)
system.tol2bus.pkt_size_system.cpu7.dtb.walker.dma::system.l2.cpu_side        28296                       # Cumulative packet size per connected master and slave (bytes)
system.tol2bus.pkt_size::total               96489303                       # Cumulative packet size per connected master and slave (bytes)
system.tol2bus.snoops                          636686                       # Total snoops (count)
system.tol2bus.snoop_fanout::samples          2265649                       # Request fanout histogram
system.tol2bus.snoop_fanout::mean           47.218414                       # Request fanout histogram
system.tol2bus.snoop_fanout::stdev           0.413170                       # Request fanout histogram
system.tol2bus.snoop_fanout::underflows             0      0.00%      0.00% # Request fanout histogram
system.tol2bus.snoop_fanout::0                      0      0.00%      0.00% # Request fanout histogram
system.tol2bus.snoop_fanout::1                      0      0.00%      0.00% # Request fanout histogram
system.tol2bus.snoop_fanout::2                      0      0.00%      0.00% # Request fanout histogram
system.tol2bus.snoop_fanout::3                      0      0.00%      0.00% # Request fanout histogram
system.tol2bus.snoop_fanout::4                      0      0.00%      0.00% # Request fanout histogram
system.tol2bus.snoop_fanout::5                      0      0.00%      0.00% # Request fanout histogram
system.tol2bus.snoop_fanout::6                      0      0.00%      0.00% # Request fanout histogram
system.tol2bus.snoop_fanout::7                      0      0.00%      0.00% # Request fanout histogram
system.tol2bus.snoop_fanout::8                      0      0.00%      0.00% # Request fanout histogram
system.tol2bus.snoop_fanout::9                      0      0.00%      0.00% # Request fanout histogram
system.tol2bus.snoop_fanout::10                     0      0.00%      0.00% # Request fanout histogram
system.tol2bus.snoop_fanout::11                     0      0.00%      0.00% # Request fanout histogram
system.tol2bus.snoop_fanout::12                     0      0.00%      0.00% # Request fanout histogram
system.tol2bus.snoop_fanout::13                     0      0.00%      0.00% # Request fanout histogram
system.tol2bus.snoop_fanout::14                     0      0.00%      0.00% # Request fanout histogram
system.tol2bus.snoop_fanout::15                     0      0.00%      0.00% # Request fanout histogram
system.tol2bus.snoop_fanout::16                     0      0.00%      0.00% # Request fanout histogram
system.tol2bus.snoop_fanout::17                     0      0.00%      0.00% # Request fanout histogram
system.tol2bus.snoop_fanout::18                     0      0.00%      0.00% # Request fanout histogram
system.tol2bus.snoop_fanout::19                     0      0.00%      0.00% # Request fanout histogram
system.tol2bus.snoop_fanout::20                     0      0.00%      0.00% # Request fanout histogram
system.tol2bus.snoop_fanout::21                     0      0.00%      0.00% # Request fanout histogram
system.tol2bus.snoop_fanout::22                     0      0.00%      0.00% # Request fanout histogram
system.tol2bus.snoop_fanout::23                     0      0.00%      0.00% # Request fanout histogram
system.tol2bus.snoop_fanout::24                     0      0.00%      0.00% # Request fanout histogram
system.tol2bus.snoop_fanout::25                     0      0.00%      0.00% # Request fanout histogram
system.tol2bus.snoop_fanout::26                     0      0.00%      0.00% # Request fanout histogram
system.tol2bus.snoop_fanout::27                     0      0.00%      0.00% # Request fanout histogram
system.tol2bus.snoop_fanout::28                     0      0.00%      0.00% # Request fanout histogram
system.tol2bus.snoop_fanout::29                     0      0.00%      0.00% # Request fanout histogram
system.tol2bus.snoop_fanout::30                     0      0.00%      0.00% # Request fanout histogram
system.tol2bus.snoop_fanout::31                     0      0.00%      0.00% # Request fanout histogram
system.tol2bus.snoop_fanout::32                     0      0.00%      0.00% # Request fanout histogram
system.tol2bus.snoop_fanout::33                     0      0.00%      0.00% # Request fanout histogram
system.tol2bus.snoop_fanout::34                     0      0.00%      0.00% # Request fanout histogram
system.tol2bus.snoop_fanout::35                     0      0.00%      0.00% # Request fanout histogram
system.tol2bus.snoop_fanout::36                     0      0.00%      0.00% # Request fanout histogram
system.tol2bus.snoop_fanout::37                     0      0.00%      0.00% # Request fanout histogram
system.tol2bus.snoop_fanout::38                     0      0.00%      0.00% # Request fanout histogram
system.tol2bus.snoop_fanout::39                     0      0.00%      0.00% # Request fanout histogram
system.tol2bus.snoop_fanout::40                     0      0.00%      0.00% # Request fanout histogram
system.tol2bus.snoop_fanout::41                     0      0.00%      0.00% # Request fanout histogram
system.tol2bus.snoop_fanout::42                     0      0.00%      0.00% # Request fanout histogram
system.tol2bus.snoop_fanout::43                     0      0.00%      0.00% # Request fanout histogram
system.tol2bus.snoop_fanout::44                     0      0.00%      0.00% # Request fanout histogram
system.tol2bus.snoop_fanout::45                     0      0.00%      0.00% # Request fanout histogram
system.tol2bus.snoop_fanout::46                     0      0.00%      0.00% # Request fanout histogram
system.tol2bus.snoop_fanout::47               1770799     78.16%     78.16% # Request fanout histogram
system.tol2bus.snoop_fanout::48                494850     21.84%    100.00% # Request fanout histogram
system.tol2bus.snoop_fanout::overflows              0      0.00%    100.00% # Request fanout histogram
system.tol2bus.snoop_fanout::min_value             47                       # Request fanout histogram
system.tol2bus.snoop_fanout::max_value             48                       # Request fanout histogram
system.tol2bus.snoop_fanout::total            2265649                       # Request fanout histogram
system.tol2bus.reqLayer0.occupancy         1182914276                       # Layer occupancy (ticks)
system.tol2bus.reqLayer0.utilization              3.6                       # Layer utilization (%)
system.tol2bus.snoopLayer0.occupancy             6000                       # Layer occupancy (ticks)
system.tol2bus.snoopLayer0.utilization            0.0                       # Layer utilization (%)
system.tol2bus.respLayer0.occupancy          34638018                       # Layer occupancy (ticks)
system.tol2bus.respLayer0.utilization             0.1                       # Layer utilization (%)
system.tol2bus.respLayer1.occupancy          92955971                       # Layer occupancy (ticks)
system.tol2bus.respLayer1.utilization             0.3                       # Layer utilization (%)
system.tol2bus.respLayer2.occupancy           3372973                       # Layer occupancy (ticks)
system.tol2bus.respLayer2.utilization             0.0                       # Layer utilization (%)
system.tol2bus.respLayer3.occupancy          10939712                       # Layer occupancy (ticks)
system.tol2bus.respLayer3.utilization             0.0                       # Layer utilization (%)
system.tol2bus.respLayer6.occupancy          67878720                       # Layer occupancy (ticks)
system.tol2bus.respLayer6.utilization             0.2                       # Layer utilization (%)
system.tol2bus.respLayer7.occupancy          70718742                       # Layer occupancy (ticks)
system.tol2bus.respLayer7.utilization             0.2                       # Layer utilization (%)
system.tol2bus.respLayer8.occupancy           6342981                       # Layer occupancy (ticks)
system.tol2bus.respLayer8.utilization             0.0                       # Layer utilization (%)
system.tol2bus.respLayer9.occupancy          13129965                       # Layer occupancy (ticks)
system.tol2bus.respLayer9.utilization             0.0                       # Layer utilization (%)
system.tol2bus.respLayer12.occupancy        507159849                       # Layer occupancy (ticks)
system.tol2bus.respLayer12.utilization            1.6                       # Layer utilization (%)
system.tol2bus.respLayer13.occupancy        324426750                       # Layer occupancy (ticks)
system.tol2bus.respLayer13.utilization            1.0                       # Layer utilization (%)
system.tol2bus.respLayer14.occupancy         11958984                       # Layer occupancy (ticks)
system.tol2bus.respLayer14.utilization            0.0                       # Layer utilization (%)
system.tol2bus.respLayer15.occupancy         53280702                       # Layer occupancy (ticks)
system.tol2bus.respLayer15.utilization            0.2                       # Layer utilization (%)
system.tol2bus.respLayer18.occupancy         12875520                       # Layer occupancy (ticks)
system.tol2bus.respLayer18.utilization            0.0                       # Layer utilization (%)
system.tol2bus.respLayer19.occupancy         30156234                       # Layer occupancy (ticks)
system.tol2bus.respLayer19.utilization            0.1                       # Layer utilization (%)
system.tol2bus.respLayer20.occupancy           703497                       # Layer occupancy (ticks)
system.tol2bus.respLayer20.utilization            0.0                       # Layer utilization (%)
system.tol2bus.respLayer21.occupancy          4473983                       # Layer occupancy (ticks)
system.tol2bus.respLayer21.utilization            0.0                       # Layer utilization (%)
system.tol2bus.respLayer24.occupancy          6608622                       # Layer occupancy (ticks)
system.tol2bus.respLayer24.utilization            0.0                       # Layer utilization (%)
system.tol2bus.respLayer25.occupancy         24010886                       # Layer occupancy (ticks)
system.tol2bus.respLayer25.utilization            0.1                       # Layer utilization (%)
system.tol2bus.respLayer26.occupancy           621242                       # Layer occupancy (ticks)
system.tol2bus.respLayer26.utilization            0.0                       # Layer utilization (%)
system.tol2bus.respLayer27.occupancy          4063985                       # Layer occupancy (ticks)
system.tol2bus.respLayer27.utilization            0.0                       # Layer utilization (%)
system.tol2bus.respLayer30.occupancy        116499951                       # Layer occupancy (ticks)
system.tol2bus.respLayer30.utilization            0.4                       # Layer utilization (%)
system.tol2bus.respLayer31.occupancy        110812977                       # Layer occupancy (ticks)
system.tol2bus.respLayer31.utilization            0.3                       # Layer utilization (%)
system.tol2bus.respLayer32.occupancy          3926484                       # Layer occupancy (ticks)
system.tol2bus.respLayer32.utilization            0.0                       # Layer utilization (%)
system.tol2bus.respLayer33.occupancy         13550972                       # Layer occupancy (ticks)
system.tol2bus.respLayer33.utilization            0.0                       # Layer utilization (%)
[...]
system.cpu7.dcache.LoadLockedReq_mshr_miss_latency::switch_cpus7.data      6486249                       # number of LoadLockedReq MSHR miss cycles
system.cpu7.dcache.LoadLockedReq_mshr_miss_latency::total      6486249                       # number of LoadLockedReq MSHR miss cycles
system.cpu7.dcache.StoreCondReq_mshr_miss_latency::switch_cpus7.data      4449924                       # number of StoreCondReq MSHR miss cycles
system.cpu7.dcache.StoreCondReq_mshr_miss_latency::total      4449924                       # number of StoreCondReq MSHR miss cycles
system.cpu7.dcache.StoreCondFailReq_mshr_miss_latency::switch_cpus7.data         2500                       # number of StoreCondFailReq MSHR miss cycles
system.cpu7.dcache.StoreCondFailReq_mshr_miss_latency::total         2500                       # number of StoreCondFailReq MSHR miss cycles
system.cpu7.dcache.demand_mshr_miss_latency::switch_cpus7.data    549548447                       # number of demand (read+write) MSHR miss cycles
system.cpu7.dcache.demand_mshr_miss_latency::total    549548447                       # number of demand (read+write) MSHR miss cycles
system.cpu7.dcache.overall_mshr_miss_latency::switch_cpus7.data    603272956                       # number of overall MSHR miss cycles
system.cpu7.dcache.overall_mshr_miss_latency::total    603272956                       # number of overall MSHR miss cycles
system.cpu7.dcache.ReadReq_mshr_uncacheable_latency::switch_cpus7.data      2012000                       # number of ReadReq MSHR uncacheable cycles
system.cpu7.dcache.ReadReq_mshr_uncacheable_latency::total      2012000                       # number of ReadReq MSHR uncacheable cycles
system.cpu7.dcache.WriteReq_mshr_uncacheable_latency::switch_cpus7.data      1497000                       # number of WriteReq MSHR uncacheable cycles
system.cpu7.dcache.WriteReq_mshr_uncacheable_latency::total      1497000                       # number of WriteReq MSHR uncacheable cycles
system.cpu7.dcache.overall_mshr_uncacheable_latency::switch_cpus7.data      3509000                       # number of overall MSHR uncacheable cycles
system.cpu7.dcache.overall_mshr_uncacheable_latency::total      3509000                       # number of overall MSHR uncacheable cycles
system.cpu7.dcache.ReadReq_mshr_miss_rate::switch_cpus7.data     0.008344                       # mshr miss rate for ReadReq accesses
system.cpu7.dcache.ReadReq_mshr_miss_rate::total     0.008344                       # mshr miss rate for ReadReq accesses
system.cpu7.dcache.WriteReq_mshr_miss_rate::switch_cpus7.data     0.010879                       # mshr miss rate for WriteReq accesses
system.cpu7.dcache.WriteReq_mshr_miss_rate::total     0.010879                       # mshr miss rate for WriteReq accesses
system.cpu7.dcache.SoftPFReq_mshr_miss_rate::switch_cpus7.data     0.340924                       # mshr miss rate for SoftPFReq accesses
system.cpu7.dcache.SoftPFReq_mshr_miss_rate::total     0.340924                       # mshr miss rate for SoftPFReq accesses
system.cpu7.dcache.LoadLockedReq_mshr_miss_rate::switch_cpus7.data     0.015109                       # mshr miss rate for LoadLockedReq accesses
system.cpu7.dcache.LoadLockedReq_mshr_miss_rate::total     0.015109                       # mshr miss rate for LoadLockedReq accesses
system.cpu7.dcache.StoreCondReq_mshr_miss_rate::switch_cpus7.data     0.066367                       # mshr miss rate for StoreCondReq accesses
system.cpu7.dcache.StoreCondReq_mshr_miss_rate::total     0.066367                       # mshr miss rate for StoreCondReq accesses
system.cpu7.dcache.demand_mshr_miss_rate::switch_cpus7.data     0.008879                       # mshr miss rate for demand accesses
system.cpu7.dcache.demand_mshr_miss_rate::total     0.008879                       # mshr miss rate for demand accesses
system.cpu7.dcache.overall_mshr_miss_rate::switch_cpus7.data     0.009850                       # mshr miss rate for overall accesses
system.cpu7.dcache.overall_mshr_miss_rate::total     0.009850                       # mshr miss rate for overall accesses
system.cpu7.dcache.ReadReq_avg_mshr_miss_latency::switch_cpus7.data 13102.701053                       # average ReadReq mshr miss latency
system.cpu7.dcache.ReadReq_avg_mshr_miss_latency::total 13102.701053                       # average ReadReq mshr miss latency
system.cpu7.dcache.WriteReq_avg_mshr_miss_latency::switch_cpus7.data 13338.920241                       # average WriteReq mshr miss latency
system.cpu7.dcache.WriteReq_avg_mshr_miss_latency::total 13338.920241                       # average WriteReq mshr miss latency
system.cpu7.dcache.SoftPFReq_avg_mshr_miss_latency::switch_cpus7.data 11428.315039                       # average SoftPFReq mshr miss latency
system.cpu7.dcache.SoftPFReq_avg_mshr_miss_latency::total 11428.315039                       # average SoftPFReq mshr miss latency
system.cpu7.dcache.LoadLockedReq_avg_mshr_miss_latency::switch_cpus7.data 19775.149390                       # average LoadLockedReq mshr miss latency
system.cpu7.dcache.LoadLockedReq_avg_mshr_miss_latency::total 19775.149390                       # average LoadLockedReq mshr miss latency
system.cpu7.dcache.StoreCondReq_avg_mshr_miss_latency::switch_cpus7.data  3142.601695                       # average StoreCondReq mshr miss latency
system.cpu7.dcache.StoreCondReq_avg_mshr_miss_latency::total  3142.601695                       # average StoreCondReq mshr miss latency
system.cpu7.dcache.StoreCondFailReq_avg_mshr_miss_latency::switch_cpus7.data          inf                       # average StoreCondFailReq mshr miss latency
system.cpu7.dcache.StoreCondFailReq_avg_mshr_miss_latency::total          inf                       # average StoreCondFailReq mshr miss latency
system.cpu7.dcache.demand_avg_mshr_miss_latency::switch_cpus7.data 13163.782954                       # average overall mshr miss latency
system.cpu7.dcache.demand_avg_mshr_miss_latency::total 13163.782954                       # average overall mshr miss latency
system.cpu7.dcache.overall_avg_mshr_miss_latency::switch_cpus7.data 12988.136324                       # average overall mshr miss latency
system.cpu7.dcache.overall_avg_mshr_miss_latency::total 12988.136324                       # average overall mshr miss latency
system.cpu7.dcache.ReadReq_avg_mshr_uncacheable_latency::switch_cpus7.data          inf                       # average ReadReq mshr uncacheable latency
system.cpu7.dcache.ReadReq_avg_mshr_uncacheable_latency::total          inf                       # average ReadReq mshr uncacheable latency
system.cpu7.dcache.WriteReq_avg_mshr_uncacheable_latency::switch_cpus7.data          inf                       # average WriteReq mshr uncacheable latency
system.cpu7.dcache.WriteReq_avg_mshr_uncacheable_latency::total          inf                       # average WriteReq mshr uncacheable latency
system.cpu7.dcache.overall_avg_mshr_uncacheable_latency::switch_cpus7.data          inf                       # average overall mshr uncacheable latency
system.cpu7.dcache.overall_avg_mshr_uncacheable_latency::total          inf                       # average overall mshr uncacheable latency
system.cpu7.dcache.no_allocate_misses               0                       # Number of misses that were no-allocate
system.iocache.tags.replacements                  179                       # number of replacements
system.iocache.tags.tagsinuse                6.747163                       # Cycle average of tags in use
system.iocache.tags.total_refs                      0                       # Total number of references to valid blocks.
system.iocache.tags.sampled_refs                  195                       # Sample count of references to valid blocks.
system.iocache.tags.avg_refs                        0                       # Average number of references to valid blocks.
system.iocache.tags.warmup_cycle         3214446878000                       # Cycle when the warmup percentage was hit.
system.iocache.tags.occ_blocks::realview.ide     6.747163                       # Average occupied blocks per requestor
system.iocache.tags.occ_percent::realview.ide     0.421698                       # Average percentage of cache occupancy
system.iocache.tags.occ_percent::total       0.421698                       # Average percentage of cache occupancy
system.iocache.tags.occ_task_id_blocks::1023           16                       # Occupied blocks per task id
system.iocache.tags.age_task_id_blocks_1023::4           16                       # Occupied blocks per task id
system.iocache.tags.occ_task_id_percent::1023            1                       # Percentage of cache occupancy per task id
system.iocache.tags.tag_accesses                 1755                       # Number of tag accesses
system.iocache.tags.data_accesses                1755                       # Number of data accesses
system.iocache.WriteInvalidateReq_hits::realview.ide          192                       # number of WriteInvalidateReq hits
system.iocache.WriteInvalidateReq_hits::total          192                       # number of WriteInvalidateReq hits
system.iocache.ReadReq_misses::realview.ide            3                       # number of ReadReq misses
system.iocache.ReadReq_misses::total                3                       # number of ReadReq misses
system.iocache.demand_misses::realview.ide            3                       # number of demand (read+write) misses
system.iocache.demand_misses::total                 3                       # number of demand (read+write) misses
system.iocache.overall_misses::realview.ide            3                       # number of overall misses
system.iocache.overall_misses::total                3                       # number of overall misses
system.iocache.ReadReq_miss_latency::realview.ide       328000                       # number of ReadReq miss cycles
system.iocache.ReadReq_miss_latency::total       328000                       # number of ReadReq miss cycles
system.iocache.demand_miss_latency::realview.ide       328000                       # number of demand (read+write) miss cycles
system.iocache.demand_miss_latency::total       328000                       # number of demand (read+write) miss cycles
system.iocache.overall_miss_latency::realview.ide       328000                       # number of overall miss cycles
system.iocache.overall_miss_latency::total       328000                       # number of overall miss cycles
system.iocache.ReadReq_accesses::realview.ide            3                       # number of ReadReq accesses(hits+misses)
system.iocache.ReadReq_accesses::total              3                       # number of ReadReq accesses(hits+misses)
system.iocache.WriteInvalidateReq_accesses::realview.ide          192                       # number of WriteInvalidateReq accesses(hits+misses)
system.iocache.WriteInvalidateReq_accesses::total          192                       # number of WriteInvalidateReq accesses(hits+misses)
system.iocache.demand_accesses::realview.ide            3                       # number of demand (read+write) accesses
system.iocache.demand_accesses::total               3                       # number of demand (read+write) accesses
system.iocache.overall_accesses::realview.ide            3                       # number of overall (read+write) accesses
system.iocache.overall_accesses::total              3                       # number of overall (read+write) accesses
system.iocache.ReadReq_miss_rate::realview.ide            1                       # miss rate for ReadReq accesses
system.iocache.ReadReq_miss_rate::total             1                       # miss rate for ReadReq accesses
system.iocache.demand_miss_rate::realview.ide            1                       # miss rate for demand accesses
system.iocache.demand_miss_rate::total              1                       # miss rate for demand accesses
system.iocache.overall_miss_rate::realview.ide            1                       # miss rate for overall accesses
system.iocache.overall_miss_rate::total             1                       # miss rate for overall accesses
system.iocache.ReadReq_avg_miss_latency::realview.ide 109333.333333                       # average ReadReq miss latency
system.iocache.ReadReq_avg_miss_latency::total 109333.333333                       # average ReadReq miss latency
system.iocache.demand_avg_miss_latency::realview.ide 109333.333333                       # average overall miss latency
system.iocache.demand_avg_miss_latency::total 109333.333333                       # average overall miss latency
system.iocache.overall_avg_miss_latency::realview.ide 109333.333333                       # average overall miss latency
system.iocache.overall_avg_miss_latency::total 109333.333333                       # average overall miss latency
system.iocache.blocked_cycles::no_mshrs             0                       # number of cycles access was blocked
system.iocache.blocked_cycles::no_targets            0                       # number of cycles access was blocked
system.iocache.blocked::no_mshrs                    0                       # number of cycles access was blocked
system.iocache.blocked::no_targets                  0                       # number of cycles access was blocked
system.iocache.avg_blocked_cycles::no_mshrs          nan                       # average number of cycles each access was blocked
system.iocache.avg_blocked_cycles::no_targets          nan                       # average number of cycles each access was blocked
system.iocache.fast_writes                        192                       # number of fast writes performed
system.iocache.cache_copies                         0                       # number of cache copies performed
system.iocache.ReadReq_mshr_misses::realview.ide            3                       # number of ReadReq MSHR misses
system.iocache.ReadReq_mshr_misses::total            3                       # number of ReadReq MSHR misses
system.iocache.WriteInvalidateReq_mshr_misses::realview.ide          192                       # number of WriteInvalidateReq MSHR misses
system.iocache.WriteInvalidateReq_mshr_misses::total          192                       # number of WriteInvalidateReq MSHR misses
system.iocache.demand_mshr_misses::realview.ide            3                       # number of demand (read+write) MSHR misses
system.iocache.demand_mshr_misses::total            3                       # number of demand (read+write) MSHR misses
system.iocache.overall_mshr_misses::realview.ide            3                       # number of overall MSHR misses
system.iocache.overall_mshr_misses::total            3                       # number of overall MSHR misses
system.iocache.ReadReq_mshr_miss_latency::realview.ide       172000                       # number of ReadReq MSHR miss cycles
system.iocache.ReadReq_mshr_miss_latency::total       172000                       # number of ReadReq MSHR miss cycles
system.iocache.WriteInvalidateReq_mshr_miss_latency::realview.ide     20707732                       # number of WriteInvalidateReq MSHR miss cycles
system.iocache.WriteInvalidateReq_mshr_miss_latency::total     20707732                       # number of WriteInvalidateReq MSHR miss cycles
system.iocache.demand_mshr_miss_latency::realview.ide       172000                       # number of demand (read+write) MSHR miss cycles
system.iocache.demand_mshr_miss_latency::total       172000                       # number of demand (read+write) MSHR miss cycles
system.iocache.overall_mshr_miss_latency::realview.ide       172000                       # number of overall MSHR miss cycles
system.iocache.overall_mshr_miss_latency::total       172000                       # number of overall MSHR miss cycles
system.iocache.ReadReq_mshr_miss_rate::realview.ide            1                       # mshr miss rate for ReadReq accesses
system.iocache.ReadReq_mshr_miss_rate::total            1                       # mshr miss rate for ReadReq accesses
system.iocache.WriteInvalidateReq_mshr_miss_rate::realview.ide            1                       # mshr miss rate for WriteInvalidateReq accesses
system.iocache.WriteInvalidateReq_mshr_miss_rate::total            1                       # mshr miss rate for WriteInvalidateReq accesses
system.iocache.demand_mshr_miss_rate::realview.ide            1                       # mshr miss rate for demand accesses
system.iocache.demand_mshr_miss_rate::total            1                       # mshr miss rate for demand accesses
system.iocache.overall_mshr_miss_rate::realview.ide            1                       # mshr miss rate for overall accesses
system.iocache.overall_mshr_miss_rate::total            1                       # mshr miss rate for overall accesses
system.iocache.ReadReq_avg_mshr_miss_latency::realview.ide 57333.333333                       # average ReadReq mshr miss latency
system.iocache.ReadReq_avg_mshr_miss_latency::total 57333.333333                       # average ReadReq mshr miss latency
system.iocache.WriteInvalidateReq_avg_mshr_miss_latency::realview.ide 107852.770833                       # average WriteInvalidateReq mshr miss latency
system.iocache.WriteInvalidateReq_avg_mshr_miss_latency::total 107852.770833                       # average WriteInvalidateReq mshr miss latency
system.iocache.demand_avg_mshr_miss_latency::realview.ide 57333.333333                       # average overall mshr miss latency
system.iocache.demand_avg_mshr_miss_latency::total 57333.333333                       # average overall mshr miss latency
system.iocache.overall_avg_mshr_miss_latency::realview.ide 57333.333333                       # average overall mshr miss latency
system.iocache.overall_avg_mshr_miss_latency::total 57333.333333                       # average overall mshr miss latency
system.iocache.no_allocate_misses                   0                       # Number of misses that were no-allocate
system.switch_cpus0.kern.inst.arm                   0                       # number of arm instructions executed
system.switch_cpus0.kern.inst.quiesce               0                       # number of quiesce instructions executed
system.switch_cpus1.kern.inst.arm                   0                       # number of arm instructions executed
system.switch_cpus1.kern.inst.quiesce               0                       # number of quiesce instructions executed
system.switch_cpus2.kern.inst.arm                   0                       # number of arm instructions executed
system.switch_cpus2.kern.inst.quiesce               0                       # number of quiesce instructions executed
system.switch_cpus3.kern.inst.arm                   0                       # number of arm instructions executed
system.switch_cpus3.kern.inst.quiesce               0                       # number of quiesce instructions executed
system.switch_cpus4.kern.inst.arm                   0                       # number of arm instructions executed
system.switch_cpus4.kern.inst.quiesce               0                       # number of quiesce instructions executed
system.switch_cpus5.kern.inst.arm                   0                       # number of arm instructions executed
system.switch_cpus5.kern.inst.quiesce               0                       # number of quiesce instructions executed
system.switch_cpus6.kern.inst.arm                   0                       # number of arm instructions executed
system.switch_cpus6.kern.inst.quiesce               0                       # number of quiesce instructions executed
system.switch_cpus7.kern.inst.arm                   0                       # number of arm instructions executed
system.switch_cpus7.kern.inst.quiesce               0                       # number of quiesce instructions executed

---------- End Simulation Statistics   ----------
