
---------- Begin Simulation Statistics ----------
sim_seconds                                  0.251166                       # Number of seconds simulated
sim_ticks                                251165925500                       # Number of ticks simulated
final_tick                               3446836847000                       # Number of ticks from beginning of simulation (restored from checkpoints and never reset)
sim_freq                                 1000000000000                       # Frequency of simulated ticks
host_inst_rate                                 251294                       # Simulator instruction rate (inst/s)
host_op_rate                                   253161                       # Simulator op (including micro ops) rate (op/s)
host_tick_rate                               12922764                       # Simulator tick rate (ticks/s)
host_mem_usage                                 982120                       # Number of bytes of host memory used
host_seconds                                 19435.93                       # Real time elapsed on the host
sim_insts                                  4884128535                       # Number of instructions simulated
sim_ops                                    4920420055                       # Number of ops (including micro ops) simulated
system.voltage_domain.voltage                       1                       # Voltage in Volts
system.clk_domain.clock                          1000                       # Clock period in ticks
system.mem_ctrls.bytes_read::switch_cpus0.dtb.walker        51584                       # Number of bytes read from this memory
system.mem_ctrls.bytes_read::switch_cpus0.itb.walker        11328                       # Number of bytes read from this memory
system.mem_ctrls.bytes_read::switch_cpus0.inst       335616                       # Number of bytes read from this memory
system.mem_ctrls.bytes_read::switch_cpus0.data     12554688                       # Number of bytes read from this memory
system.mem_ctrls.bytes_read::switch_cpus1.dtb.walker        35200                       # Number of bytes read from this memory
system.mem_ctrls.bytes_read::switch_cpus1.itb.walker         7040                       # Number of bytes read from this memory
system.mem_ctrls.bytes_read::switch_cpus1.inst       435392                       # Number of bytes read from this memory
system.mem_ctrls.bytes_read::switch_cpus1.data     12559552                       # Number of bytes read from this memory
system.mem_ctrls.bytes_read::switch_cpus2.dtb.walker        33920                       # Number of bytes read from this memory
system.mem_ctrls.bytes_read::switch_cpus2.itb.walker         4032                       # Number of bytes read from this memory
system.mem_ctrls.bytes_read::switch_cpus2.inst       650240                       # Number of bytes read from this memory
system.mem_ctrls.bytes_read::switch_cpus2.data     13438848                       # Number of bytes read from this memory
system.mem_ctrls.bytes_read::switch_cpus3.dtb.walker        32896                       # Number of bytes read from this memory
system.mem_ctrls.bytes_read::switch_cpus3.itb.walker         5888                       # Number of bytes read from this memory
system.mem_ctrls.bytes_read::switch_cpus3.inst       392640                       # Number of bytes read from this memory
system.mem_ctrls.bytes_read::switch_cpus3.data     12180352                       # Number of bytes read from this memory
system.mem_ctrls.bytes_read::switch_cpus4.dtb.walker        31744                       # Number of bytes read from this memory
system.mem_ctrls.bytes_read::switch_cpus4.itb.walker         5056                       # Number of bytes read from this memory
system.mem_ctrls.bytes_read::switch_cpus4.inst       361728                       # Number of bytes read from this memory
system.mem_ctrls.bytes_read::switch_cpus4.data     12226496                       # Number of bytes read from this memory
system.mem_ctrls.bytes_read::switch_cpus5.dtb.walker        43200                       # Number of bytes read from this memory
system.mem_ctrls.bytes_read::switch_cpus5.itb.walker        14656                       # Number of bytes read from this memory
system.mem_ctrls.bytes_read::switch_cpus5.inst       387584                       # Number of bytes read from this memory
system.mem_ctrls.bytes_read::switch_cpus5.data     12315648                       # Number of bytes read from this memory
system.mem_ctrls.bytes_read::switch_cpus6.dtb.walker        55808                       # Number of bytes read from this memory
system.mem_ctrls.bytes_read::switch_cpus6.itb.walker        26240                       # Number of bytes read from this memory
system.mem_ctrls.bytes_read::switch_cpus6.inst       662976                       # Number of bytes read from this memory
system.mem_ctrls.bytes_read::switch_cpus6.data     12998528                       # Number of bytes read from this memory
system.mem_ctrls.bytes_read::switch_cpus7.dtb.walker        37504                       # Number of bytes read from this memory
system.mem_ctrls.bytes_read::switch_cpus7.itb.walker         8384                       # Number of bytes read from this memory
system.mem_ctrls.bytes_read::switch_cpus7.inst       482560                       # Number of bytes read from this memory
system.mem_ctrls.bytes_read::switch_cpus7.data     12592256                       # Number of bytes read from this memory
system.mem_ctrls.bytes_read::l2.prefetcher     30590848                       # Number of bytes read from this memory
system.mem_ctrls.bytes_read::cpu0.inst            256                       # Number of bytes read from this memory
system.mem_ctrls.bytes_read::cpu0.data            192                       # Number of bytes read from this memory
system.mem_ctrls.bytes_read::cpu6.inst             64                       # Number of bytes read from this memory
system.mem_ctrls.bytes_read::cpu6.data            128                       # Number of bytes read from this memory
system.mem_ctrls.bytes_read::cpu7.inst            192                       # Number of bytes read from this memory
system.mem_ctrls.bytes_read::cpu7.data            192                       # Number of bytes read from this memory
system.mem_ctrls.bytes_read::total          135571456                       # Number of bytes read from this memory
system.mem_ctrls.bytes_inst_read::switch_cpus0.inst       335616                       # Number of instructions bytes read from this memory
system.mem_ctrls.bytes_inst_read::switch_cpus1.inst       435392                       # Number of instructions bytes read from this memory
system.mem_ctrls.bytes_inst_read::switch_cpus2.inst       650240                       # Number of instructions bytes read from this memory
system.mem_ctrls.bytes_inst_read::switch_cpus3.inst       392640                       # Number of instructions bytes read from this memory
system.mem_ctrls.bytes_inst_read::switch_cpus4.inst       361728                       # Number of instructions bytes read from this memory
system.mem_ctrls.bytes_inst_read::switch_cpus5.inst       387584                       # Number of instructions bytes read from this memory
system.mem_ctrls.bytes_inst_read::switch_cpus6.inst       662976                       # Number of instructions bytes read from this memory
system.mem_ctrls.bytes_inst_read::switch_cpus7.inst       482560                       # Number of instructions bytes read from this memory
system.mem_ctrls.bytes_inst_read::cpu0.inst          256                       # Number of instructions bytes read from this memory
system.mem_ctrls.bytes_inst_read::cpu6.inst           64                       # Number of instructions bytes read from this memory
system.mem_ctrls.bytes_inst_read::cpu7.inst          192                       # Number of instructions bytes read from this memory
system.mem_ctrls.bytes_inst_read::total       3709248                       # Number of instructions bytes read from this memory
system.mem_ctrls.bytes_written::writebacks     16396736                       # Number of bytes written to this memory
system.mem_ctrls.bytes_written::realview.ide         8192                       # Number of bytes written to this memory
system.mem_ctrls.bytes_written::total        16404928                       # Number of bytes written to this memory
system.mem_ctrls.num_reads::switch_cpus0.dtb.walker          806                       # Number of read requests responded to by this memory
system.mem_ctrls.num_reads::switch_cpus0.itb.walker          177                       # Number of read requests responded to by this memory
system.mem_ctrls.num_reads::switch_cpus0.inst         5244                       # Number of read requests responded to by this memory
system.mem_ctrls.num_reads::switch_cpus0.data       196167                       # Number of read requests responded to by this memory
system.mem_ctrls.num_reads::switch_cpus1.dtb.walker          550                       # Number of read requests responded to by this memory
system.mem_ctrls.num_reads::switch_cpus1.itb.walker          110                       # Number of read requests responded to by this memory
system.mem_ctrls.num_reads::switch_cpus1.inst         6803                       # Number of read requests responded to by this memory
system.mem_ctrls.num_reads::switch_cpus1.data       196243                       # Number of read requests responded to by this memory
system.mem_ctrls.num_reads::switch_cpus2.dtb.walker          530                       # Number of read requests responded to by this memory
system.mem_ctrls.num_reads::switch_cpus2.itb.walker           63                       # Number of read requests responded to by this memory
system.mem_ctrls.num_reads::switch_cpus2.inst        10160                       # Number of read requests responded to by this memory
system.mem_ctrls.num_reads::switch_cpus2.data       209982                       # Number of read requests responded to by this memory
system.mem_ctrls.num_reads::switch_cpus3.dtb.walker          514                       # Number of read requests responded to by this memory
system.mem_ctrls.num_reads::switch_cpus3.itb.walker           92                       # Number of read requests responded to by this memory
system.mem_ctrls.num_reads::switch_cpus3.inst         6135                       # Number of read requests responded to by this memory
system.mem_ctrls.num_reads::switch_cpus3.data       190318                       # Number of read requests responded to by this memory
system.mem_ctrls.num_reads::switch_cpus4.dtb.walker          496                       # Number of read requests responded to by this memory
system.mem_ctrls.num_reads::switch_cpus4.itb.walker           79                       # Number of read requests responded to by this memory
system.mem_ctrls.num_reads::switch_cpus4.inst         5652                       # Number of read requests responded to by this memory
system.mem_ctrls.num_reads::switch_cpus4.data       191039                       # Number of read requests responded to by this memory
system.mem_ctrls.num_reads::switch_cpus5.dtb.walker          675                       # Number of read requests responded to by this memory
system.mem_ctrls.num_reads::switch_cpus5.itb.walker          229                       # Number of read requests responded to by this memory
system.mem_ctrls.num_reads::switch_cpus5.inst         6056                       # Number of read requests responded to by this memory
system.mem_ctrls.num_reads::switch_cpus5.data       192432                       # Number of read requests responded to by this memory
system.mem_ctrls.num_reads::switch_cpus6.dtb.walker          872                       # Number of read requests responded to by this memory
system.mem_ctrls.num_reads::switch_cpus6.itb.walker          410                       # Number of read requests responded to by this memory
system.mem_ctrls.num_reads::switch_cpus6.inst        10359                       # Number of read requests responded to by this memory
system.mem_ctrls.num_reads::switch_cpus6.data       203102                       # Number of read requests responded to by this memory
system.mem_ctrls.num_reads::switch_cpus7.dtb.walker          586                       # Number of read requests responded to by this memory
system.mem_ctrls.num_reads::switch_cpus7.itb.walker          131                       # Number of read requests responded to by this memory
system.mem_ctrls.num_reads::switch_cpus7.inst         7540                       # Number of read requests responded to by this memory
system.mem_ctrls.num_reads::switch_cpus7.data       196754                       # Number of read requests responded to by this memory
system.mem_ctrls.num_reads::l2.prefetcher       477982                       # Number of read requests responded to by this memory
system.mem_ctrls.num_reads::cpu0.inst               4                       # Number of read requests responded to by this memory
system.mem_ctrls.num_reads::cpu0.data               3                       # Number of read requests responded to by this memory
system.mem_ctrls.num_reads::cpu6.inst               1                       # Number of read requests responded to by this memory
system.mem_ctrls.num_reads::cpu6.data               2                       # Number of read requests responded to by this memory
system.mem_ctrls.num_reads::cpu7.inst               3                       # Number of read requests responded to by this memory
system.mem_ctrls.num_reads::cpu7.data               3                       # Number of read requests responded to by this memory
system.mem_ctrls.num_reads::total             2118304                       # Number of read requests responded to by this memory
system.mem_ctrls.num_writes::writebacks        256199                       # Number of write requests responded to by this memory
system.mem_ctrls.num_writes::realview.ide          128                       # Number of write requests responded to by this memory
system.mem_ctrls.num_writes::total             256327                       # Number of write requests responded to by this memory
system.mem_ctrls.bw_read::switch_cpus0.dtb.walker       205378                       # Total read bandwidth from this memory (bytes/s)
system.mem_ctrls.bw_read::switch_cpus0.itb.walker        45102                       # Total read bandwidth from this memory (bytes/s)
system.mem_ctrls.bw_read::switch_cpus0.inst      1336232                       # Total read bandwidth from this memory (bytes/s)
system.mem_ctrls.bw_read::switch_cpus0.data     49985634                       # Total read bandwidth from this memory (bytes/s)
system.mem_ctrls.bw_read::switch_cpus1.dtb.walker       140146                       # Total read bandwidth from this memory (bytes/s)
system.mem_ctrls.bw_read::switch_cpus1.itb.walker        28029                       # Total read bandwidth from this memory (bytes/s)
system.mem_ctrls.bw_read::switch_cpus1.inst      1733484                       # Total read bandwidth from this memory (bytes/s)
system.mem_ctrls.bw_read::switch_cpus1.data     50005000                       # Total read bandwidth from this memory (bytes/s)
system.mem_ctrls.bw_read::switch_cpus2.dtb.walker       135050                       # Total read bandwidth from this memory (bytes/s)
system.mem_ctrls.bw_read::switch_cpus2.itb.walker        16053                       # Total read bandwidth from this memory (bytes/s)
system.mem_ctrls.bw_read::switch_cpus2.inst      2588886                       # Total read bandwidth from this memory (bytes/s)
system.mem_ctrls.bw_read::switch_cpus2.data     53505857                       # Total read bandwidth from this memory (bytes/s)
system.mem_ctrls.bw_read::switch_cpus3.dtb.walker       130973                       # Total read bandwidth from this memory (bytes/s)
system.mem_ctrls.bw_read::switch_cpus3.itb.walker        23443                       # Total read bandwidth from this memory (bytes/s)
system.mem_ctrls.bw_read::switch_cpus3.inst      1563269                       # Total read bandwidth from this memory (bytes/s)
system.mem_ctrls.bw_read::switch_cpus3.data     48495241                       # Total read bandwidth from this memory (bytes/s)
system.mem_ctrls.bw_read::switch_cpus4.dtb.walker       126387                       # Total read bandwidth from this memory (bytes/s)
system.mem_ctrls.bw_read::switch_cpus4.itb.walker        20130                       # Total read bandwidth from this memory (bytes/s)
system.mem_ctrls.bw_read::switch_cpus4.inst      1440195                       # Total read bandwidth from this memory (bytes/s)
system.mem_ctrls.bw_read::switch_cpus4.data     48678960                       # Total read bandwidth from this memory (bytes/s)
system.mem_ctrls.bw_read::switch_cpus5.dtb.walker       171998                       # Total read bandwidth from this memory (bytes/s)
system.mem_ctrls.bw_read::switch_cpus5.itb.walker        58352                       # Total read bandwidth from this memory (bytes/s)
system.mem_ctrls.bw_read::switch_cpus5.inst      1543139                       # Total read bandwidth from this memory (bytes/s)
system.mem_ctrls.bw_read::switch_cpus5.data     49033912                       # Total read bandwidth from this memory (bytes/s)
system.mem_ctrls.bw_read::switch_cpus6.dtb.walker       222196                       # Total read bandwidth from this memory (bytes/s)
system.mem_ctrls.bw_read::switch_cpus6.itb.walker       104473                       # Total read bandwidth from this memory (bytes/s)
system.mem_ctrls.bw_read::switch_cpus6.inst      2639594                       # Total read bandwidth from this memory (bytes/s)
system.mem_ctrls.bw_read::switch_cpus6.data     51752753                       # Total read bandwidth from this memory (bytes/s)
system.mem_ctrls.bw_read::switch_cpus7.dtb.walker       149320                       # Total read bandwidth from this memory (bytes/s)
system.mem_ctrls.bw_read::switch_cpus7.itb.walker        33380                       # Total read bandwidth from this memory (bytes/s)
system.mem_ctrls.bw_read::switch_cpus7.inst      1921280                       # Total read bandwidth from this memory (bytes/s)
system.mem_ctrls.bw_read::switch_cpus7.data     50135208                       # Total read bandwidth from this memory (bytes/s)
system.mem_ctrls.bw_read::l2.prefetcher     121795375                       # Total read bandwidth from this memory (bytes/s)
system.mem_ctrls.bw_read::cpu0.inst              1019                       # Total read bandwidth from this memory (bytes/s)
system.mem_ctrls.bw_read::cpu0.data               764                       # Total read bandwidth from this memory (bytes/s)
system.mem_ctrls.bw_read::cpu6.inst               255                       # Total read bandwidth from this memory (bytes/s)
system.mem_ctrls.bw_read::cpu6.data               510                       # Total read bandwidth from this memory (bytes/s)
system.mem_ctrls.bw_read::cpu7.inst               764                       # Total read bandwidth from this memory (bytes/s)
system.mem_ctrls.bw_read::cpu7.data               764                       # Total read bandwidth from this memory (bytes/s)
system.mem_ctrls.bw_read::total             539768505                       # Total read bandwidth from this memory (bytes/s)
system.mem_ctrls.bw_inst_read::switch_cpus0.inst      1336232                       # Instruction read bandwidth from this memory (bytes/s)
system.mem_ctrls.bw_inst_read::switch_cpus1.inst      1733484                       # Instruction read bandwidth from this memory (bytes/s)
system.mem_ctrls.bw_inst_read::switch_cpus2.inst      2588886                       # Instruction read bandwidth from this memory (bytes/s)
system.mem_ctrls.bw_inst_read::switch_cpus3.inst      1563269                       # Instruction read bandwidth from this memory (bytes/s)
system.mem_ctrls.bw_inst_read::switch_cpus4.inst      1440195                       # Instruction read bandwidth from this memory (bytes/s)
system.mem_ctrls.bw_inst_read::switch_cpus5.inst      1543139                       # Instruction read bandwidth from this memory (bytes/s)
system.mem_ctrls.bw_inst_read::switch_cpus6.inst      2639594                       # Instruction read bandwidth from this memory (bytes/s)
system.mem_ctrls.bw_inst_read::switch_cpus7.inst      1921280                       # Instruction read bandwidth from this memory (bytes/s)
system.mem_ctrls.bw_inst_read::cpu0.inst         1019                       # Instruction read bandwidth from this memory (bytes/s)
system.mem_ctrls.bw_inst_read::cpu6.inst          255                       # Instruction read bandwidth from this memory (bytes/s)
system.mem_ctrls.bw_inst_read::cpu7.inst          764                       # Instruction read bandwidth from this memory (bytes/s)
system.mem_ctrls.bw_inst_read::total         14768118                       # Instruction read bandwidth from this memory (bytes/s)
system.mem_ctrls.bw_write::writebacks        65282486                       # Write bandwidth from this memory (bytes/s)
system.mem_ctrls.bw_write::realview.ide         32616                       # Write bandwidth from this memory (bytes/s)
system.mem_ctrls.bw_write::total             65315102                       # Write bandwidth from this memory (bytes/s)
system.mem_ctrls.bw_total::writebacks        65282486                       # Total bandwidth to/from this memory (bytes/s)
system.mem_ctrls.bw_total::switch_cpus0.dtb.walker       205378                       # Total bandwidth to/from this memory (bytes/s)
system.mem_ctrls.bw_total::switch_cpus0.itb.walker        45102                       # Total bandwidth to/from this memory (bytes/s)
system.mem_ctrls.bw_total::switch_cpus0.inst      1336232                       # Total bandwidth to/from this memory (bytes/s)
system.mem_ctrls.bw_total::switch_cpus0.data     49985634                       # Total bandwidth to/from this memory (bytes/s)
system.mem_ctrls.bw_total::switch_cpus1.dtb.walker       140146                       # Total bandwidth to/from this memory (bytes/s)
system.mem_ctrls.bw_total::switch_cpus1.itb.walker        28029                       # Total bandwidth to/from this memory (bytes/s)
system.mem_ctrls.bw_total::switch_cpus1.inst      1733484                       # Total bandwidth to/from this memory (bytes/s)
system.mem_ctrls.bw_total::switch_cpus1.data     50005000                       # Total bandwidth to/from this memory (bytes/s)
system.mem_ctrls.bw_total::switch_cpus2.dtb.walker       135050                       # Total bandwidth to/from this memory (bytes/s)
system.mem_ctrls.bw_total::switch_cpus2.itb.walker        16053                       # Total bandwidth to/from this memory (bytes/s)
system.mem_ctrls.bw_total::switch_cpus2.inst      2588886                       # Total bandwidth to/from this memory (bytes/s)
system.mem_ctrls.bw_total::switch_cpus2.data     53505857                       # Total bandwidth to/from this memory (bytes/s)
system.mem_ctrls.bw_total::switch_cpus3.dtb.walker       130973                       # Total bandwidth to/from this memory (bytes/s)
system.mem_ctrls.bw_total::switch_cpus3.itb.walker        23443                       # Total bandwidth to/from this memory (bytes/s)
system.mem_ctrls.bw_total::switch_cpus3.inst      1563269                       # Total bandwidth to/from this memory (bytes/s)
system.mem_ctrls.bw_total::switch_cpus3.data     48495241                       # Total bandwidth to/from this memory (bytes/s)
system.mem_ctrls.bw_total::switch_cpus4.dtb.walker       126387                       # Total bandwidth to/from this memory (bytes/s)
system.mem_ctrls.bw_total::switch_cpus4.itb.walker        20130                       # Total bandwidth to/from this memory (bytes/s)
system.mem_ctrls.bw_total::switch_cpus4.inst      1440195                       # Total bandwidth to/from this memory (bytes/s)
system.mem_ctrls.bw_total::switch_cpus4.data     48678960                       # Total bandwidth to/from this memory (bytes/s)
system.mem_ctrls.bw_total::switch_cpus5.dtb.walker       171998                       # Total bandwidth to/from this memory (bytes/s)
system.mem_ctrls.bw_total::switch_cpus5.itb.walker        58352                       # Total bandwidth to/from this memory (bytes/s)
system.mem_ctrls.bw_total::switch_cpus5.inst      1543139                       # Total bandwidth to/from this memory (bytes/s)
system.mem_ctrls.bw_total::switch_cpus5.data     49033912                       # Total bandwidth to/from this memory (bytes/s)
system.mem_ctrls.bw_total::switch_cpus6.dtb.walker       222196                       # Total bandwidth to/from this memory (bytes/s)
system.mem_ctrls.bw_total::switch_cpus6.itb.walker       104473                       # Total bandwidth to/from this memory (bytes/s)
system.mem_ctrls.bw_total::switch_cpus6.inst      2639594                       # Total bandwidth to/from this memory (bytes/s)
system.mem_ctrls.bw_total::switch_cpus6.data     51752753                       # Total bandwidth to/from this memory (bytes/s)
system.mem_ctrls.bw_total::switch_cpus7.dtb.walker       149320                       # Total bandwidth to/from this memory (bytes/s)
system.mem_ctrls.bw_total::switch_cpus7.itb.walker        33380                       # Total bandwidth to/from this memory (bytes/s)
system.mem_ctrls.bw_total::switch_cpus7.inst      1921280                       # Total bandwidth to/from this memory (bytes/s)
system.mem_ctrls.bw_total::switch_cpus7.data     50135208                       # Total bandwidth to/from this memory (bytes/s)
system.mem_ctrls.bw_total::realview.ide         32616                       # Total bandwidth to/from this memory (bytes/s)
system.mem_ctrls.bw_total::l2.prefetcher    121795375                       # Total bandwidth to/from this memory (bytes/s)
system.mem_ctrls.bw_total::cpu0.inst             1019                       # Total bandwidth to/from this memory (bytes/s)
system.mem_ctrls.bw_total::cpu0.data              764                       # Total bandwidth to/from this memory (bytes/s)
system.mem_ctrls.bw_total::cpu6.inst              255                       # Total bandwidth to/from this memory (bytes/s)
system.mem_ctrls.bw_total::cpu6.data              510                       # Total bandwidth to/from this memory (bytes/s)
system.mem_ctrls.bw_total::cpu7.inst              764                       # Total bandwidth to/from this memory (bytes/s)
system.mem_ctrls.bw_total::cpu7.data              764                       # Total bandwidth to/from this memory (bytes/s)
system.mem_ctrls.bw_total::total            605083606                       # Total bandwidth to/from this memory (bytes/s)
system.mem_ctrls.readReqs                     2118290                       # Number of read requests accepted
system.mem_ctrls.writeReqs                     256327                       # Number of write requests accepted
system.mem_ctrls.readBursts                   2118290                       # Number of DRAM read bursts, including those serviced by the write queue
system.mem_ctrls.writeBursts                   256327                       # Number of DRAM write bursts, including those merged in the write queue
system.mem_ctrls.bytesReadDRAM              135451008                       # Total number of bytes read from DRAM
system.mem_ctrls.bytesReadWrQ                  119552                       # Total number of bytes read from write queue
system.mem_ctrls.bytesWritten                16403776                       # Total number of bytes written to DRAM
system.mem_ctrls.bytesReadSys               135570560                       # Total read bytes from the system interface side
system.mem_ctrls.bytesWrittenSys             16404928                       # Total written bytes from the system interface side
system.mem_ctrls.servicedByWrQ                   1868                       # Number of DRAM read bursts serviced by the write queue
system.mem_ctrls.mergedWrBursts                     1                       # Number of DRAM write bursts merged with an existing one
system.mem_ctrls.neitherReadNorWriteReqs        37104                       # Number of requests that are neither read nor write
system.mem_ctrls.perBankRdBursts::0            131345                       # Per bank write bursts
system.mem_ctrls.perBankRdBursts::1            164022                       # Per bank write bursts
system.mem_ctrls.perBankRdBursts::2            181831                       # Per bank write bursts
system.mem_ctrls.perBankRdBursts::3            162206                       # Per bank write bursts
system.mem_ctrls.perBankRdBursts::4            136036                       # Per bank write bursts
system.mem_ctrls.perBankRdBursts::5            110374                       # Per bank write bursts
system.mem_ctrls.perBankRdBursts::6            127004                       # Per bank write bursts
system.mem_ctrls.perBankRdBursts::7            121615                       # Per bank write bursts
system.mem_ctrls.perBankRdBursts::8            121560                       # Per bank write bursts
system.mem_ctrls.perBankRdBursts::9            125849                       # Per bank write bursts
system.mem_ctrls.perBankRdBursts::10           125064                       # Per bank write bursts
system.mem_ctrls.perBankRdBursts::11           123952                       # Per bank write bursts
system.mem_ctrls.perBankRdBursts::12           110566                       # Per bank write bursts
system.mem_ctrls.perBankRdBursts::13            94403                       # Per bank write bursts
system.mem_ctrls.perBankRdBursts::14           137666                       # Per bank write bursts
system.mem_ctrls.perBankRdBursts::15           142929                       # Per bank write bursts
system.mem_ctrls.perBankWrBursts::0             19134                       # Per bank write bursts
system.mem_ctrls.perBankWrBursts::1             17375                       # Per bank write bursts
system.mem_ctrls.perBankWrBursts::2             19961                       # Per bank write bursts
system.mem_ctrls.perBankWrBursts::3             21869                       # Per bank write bursts
system.mem_ctrls.perBankWrBursts::4             18305                       # Per bank write bursts
system.mem_ctrls.perBankWrBursts::5             14147                       # Per bank write bursts
system.mem_ctrls.perBankWrBursts::6             13662                       # Per bank write bursts
system.mem_ctrls.perBankWrBursts::7             13451                       # Per bank write bursts
system.mem_ctrls.perBankWrBursts::8             16780                       # Per bank write bursts
system.mem_ctrls.perBankWrBursts::9             13312                       # Per bank write bursts
system.mem_ctrls.perBankWrBursts::10            16791                       # Per bank write bursts
system.mem_ctrls.perBankWrBursts::11            14378                       # Per bank write bursts
system.mem_ctrls.perBankWrBursts::12            14217                       # Per bank write bursts
system.mem_ctrls.perBankWrBursts::13            10165                       # Per bank write bursts
system.mem_ctrls.perBankWrBursts::14            17726                       # Per bank write bursts
system.mem_ctrls.perBankWrBursts::15            15036                       # Per bank write bursts
system.mem_ctrls.numRdRetry                         0                       # Number of times read queue was full causing retry
system.mem_ctrls.numWrRetry                         0                       # Number of times write queue was full causing retry
system.mem_ctrls.totGap                  251165899500                       # Total gap between requests
system.mem_ctrls.readPktSize::0                     0                       # Read request sizes (log2)
system.mem_ctrls.readPktSize::1                     0                       # Read request sizes (log2)
system.mem_ctrls.readPktSize::2                     0                       # Read request sizes (log2)
system.mem_ctrls.readPktSize::3                     0                       # Read request sizes (log2)
system.mem_ctrls.readPktSize::4                     0                       # Read request sizes (log2)
system.mem_ctrls.readPktSize::5                     0                       # Read request sizes (log2)
system.mem_ctrls.readPktSize::6               2118290                       # Read request sizes (log2)
system.mem_ctrls.writePktSize::0                    0                       # Write request sizes (log2)
system.mem_ctrls.writePktSize::1                    0                       # Write request sizes (log2)
system.mem_ctrls.writePktSize::2                    0                       # Write request sizes (log2)
system.mem_ctrls.writePktSize::3                    0                       # Write request sizes (log2)
system.mem_ctrls.writePktSize::4                    0                       # Write request sizes (log2)
system.mem_ctrls.writePktSize::5                    0                       # Write request sizes (log2)
system.mem_ctrls.writePktSize::6               256327                       # Write request sizes (log2)
system.mem_ctrls.rdQLenPdf::0                 1296965                       # What read queue length does an incoming req see
system.mem_ctrls.rdQLenPdf::1                  418238                       # What read queue length does an incoming req see
system.mem_ctrls.rdQLenPdf::2                  130224                       # What read queue length does an incoming req see
system.mem_ctrls.rdQLenPdf::3                   69748                       # What read queue length does an incoming req see
system.mem_ctrls.rdQLenPdf::4                   48061                       # What read queue length does an incoming req see
system.mem_ctrls.rdQLenPdf::5                   38228                       # What read queue length does an incoming req see
system.mem_ctrls.rdQLenPdf::6                   31174                       # What read queue length does an incoming req see
system.mem_ctrls.rdQLenPdf::7                   26063                       # What read queue length does an incoming req see
system.mem_ctrls.rdQLenPdf::8                   21095                       # What read queue length does an incoming req see
system.mem_ctrls.rdQLenPdf::9                   12774                       # What read queue length does an incoming req see
system.mem_ctrls.rdQLenPdf::10                   8297                       # What read queue length does an incoming req see
system.mem_ctrls.rdQLenPdf::11                   6425                       # What read queue length does an incoming req see
system.mem_ctrls.rdQLenPdf::12                   3861                       # What read queue length does an incoming req see
system.mem_ctrls.rdQLenPdf::13                   2476                       # What read queue length does an incoming req see
system.mem_ctrls.rdQLenPdf::14                   1681                       # What read queue length does an incoming req see
system.mem_ctrls.rdQLenPdf::15                   1112                       # What read queue length does an incoming req see
system.mem_ctrls.rdQLenPdf::16                      0                       # What read queue length does an incoming req see
system.mem_ctrls.rdQLenPdf::17                      0                       # What read queue length does an incoming req see
system.mem_ctrls.rdQLenPdf::18                      0                       # What read queue length does an incoming req see
system.mem_ctrls.rdQLenPdf::19                      0                       # What read queue length does an incoming req see
system.mem_ctrls.rdQLenPdf::20                      0                       # What read queue length does an incoming req see
system.mem_ctrls.rdQLenPdf::21                      0                       # What read queue length does an incoming req see
system.mem_ctrls.rdQLenPdf::22                      0                       # What read queue length does an incoming req see
system.mem_ctrls.rdQLenPdf::23                      0                       # What read queue length does an incoming req see
system.mem_ctrls.rdQLenPdf::24                      0                       # What read queue length does an incoming req see
system.mem_ctrls.rdQLenPdf::25                      0                       # What read queue length does an incoming req see
system.mem_ctrls.rdQLenPdf::26                      0                       # What read queue length does an incoming req see
system.mem_ctrls.rdQLenPdf::27                      0                       # What read queue length does an incoming req see
system.mem_ctrls.rdQLenPdf::28                      0                       # What read queue length does an incoming req see
system.mem_ctrls.rdQLenPdf::29                      0                       # What read queue length does an incoming req see
system.mem_ctrls.rdQLenPdf::30                      0                       # What read queue length does an incoming req see
system.mem_ctrls.rdQLenPdf::31                      0                       # What read queue length does an incoming req see
system.mem_ctrls.wrQLenPdf::0                       1                       # What write queue length does an incoming req see
system.mem_ctrls.wrQLenPdf::1                       1                       # What write queue length does an incoming req see
system.mem_ctrls.wrQLenPdf::2                       1                       # What write queue length does an incoming req see
system.mem_ctrls.wrQLenPdf::3                       1                       # What write queue length does an incoming req see
system.mem_ctrls.wrQLenPdf::4                       1                       # What write queue length does an incoming req see
system.mem_ctrls.wrQLenPdf::5                       1                       # What write queue length does an incoming req see
system.mem_ctrls.wrQLenPdf::6                       1                       # What write queue length does an incoming req see
system.mem_ctrls.wrQLenPdf::7                       1                       # What write queue length does an incoming req see
system.mem_ctrls.wrQLenPdf::8                       1                       # What write queue length does an incoming req see
system.mem_ctrls.wrQLenPdf::9                       1                       # What write queue length does an incoming req see
system.mem_ctrls.wrQLenPdf::10                      1                       # What write queue length does an incoming req see
system.mem_ctrls.wrQLenPdf::11                      1                       # What write queue length does an incoming req see
system.mem_ctrls.wrQLenPdf::12                      1                       # What write queue length does an incoming req see
system.mem_ctrls.wrQLenPdf::13                      1                       # What write queue length does an incoming req see
system.mem_ctrls.wrQLenPdf::14                      1                       # What write queue length does an incoming req see
system.mem_ctrls.wrQLenPdf::15                   5336                       # What write queue length does an incoming req see
system.mem_ctrls.wrQLenPdf::16                   5664                       # What write queue length does an incoming req see
system.mem_ctrls.wrQLenPdf::17                  11331                       # What write queue length does an incoming req see
system.mem_ctrls.wrQLenPdf::18                  12891                       # What write queue length does an incoming req see
system.mem_ctrls.wrQLenPdf::19                  13697                       # What write queue length does an incoming req see
system.mem_ctrls.wrQLenPdf::20                  14261                       # What write queue length does an incoming req see
system.mem_ctrls.wrQLenPdf::21                  14696                       # What write queue length does an incoming req see
system.mem_ctrls.wrQLenPdf::22                  15090                       # What write queue length does an incoming req see
system.mem_ctrls.wrQLenPdf::23                  15483                       # What write queue length does an incoming req see
system.mem_ctrls.wrQLenPdf::24                  15783                       # What write queue length does an incoming req see
system.mem_ctrls.wrQLenPdf::25                  16062                       # What write queue length does an incoming req see
system.mem_ctrls.wrQLenPdf::26                  16361                       # What write queue length does an incoming req see
system.mem_ctrls.wrQLenPdf::27                  16631                       # What write queue length does an incoming req see
system.mem_ctrls.wrQLenPdf::28                  17094                       # What write queue length does an incoming req see
system.mem_ctrls.wrQLenPdf::29                  16507                       # What write queue length does an incoming req see
system.mem_ctrls.wrQLenPdf::30                  16342                       # What write queue length does an incoming req see
system.mem_ctrls.wrQLenPdf::31                  16129                       # What write queue length does an incoming req see
system.mem_ctrls.wrQLenPdf::32                  15683                       # What write queue length does an incoming req see
system.mem_ctrls.wrQLenPdf::33                    467                       # What write queue length does an incoming req see
system.mem_ctrls.wrQLenPdf::34                    247                       # What write queue length does an incoming req see
system.mem_ctrls.wrQLenPdf::35                    148                       # What write queue length does an incoming req see
system.mem_ctrls.wrQLenPdf::36                    100                       # What write queue length does an incoming req see
system.mem_ctrls.wrQLenPdf::37                     81                       # What write queue length does an incoming req see
system.mem_ctrls.wrQLenPdf::38                     59                       # What write queue length does an incoming req see
system.mem_ctrls.wrQLenPdf::39                     44                       # What write queue length does an incoming req see
system.mem_ctrls.wrQLenPdf::40                     29                       # What write queue length does an incoming req see
system.mem_ctrls.wrQLenPdf::41                     22                       # What write queue length does an incoming req see
system.mem_ctrls.wrQLenPdf::42                     17                       # What write queue length does an incoming req see
system.mem_ctrls.wrQLenPdf::43                     13                       # What write queue length does an incoming req see
system.mem_ctrls.wrQLenPdf::44                     12                       # What write queue length does an incoming req see
system.mem_ctrls.wrQLenPdf::45                     10                       # What write queue length does an incoming req see
system.mem_ctrls.wrQLenPdf::46                      7                       # What write queue length does an incoming req see
system.mem_ctrls.wrQLenPdf::47                      7                       # What write queue length does an incoming req see
system.mem_ctrls.wrQLenPdf::48                      2                       # What write queue length does an incoming req see
system.mem_ctrls.wrQLenPdf::49                      1                       # What write queue length does an incoming req see
system.mem_ctrls.wrQLenPdf::50                      1                       # What write queue length does an incoming req see
system.mem_ctrls.wrQLenPdf::51                      2                       # What write queue length does an incoming req see
system.mem_ctrls.wrQLenPdf::52                      1                       # What write queue length does an incoming req see
system.mem_ctrls.wrQLenPdf::53                      0                       # What write queue length does an incoming req see
system.mem_ctrls.wrQLenPdf::54                      0                       # What write queue length does an incoming req see
system.mem_ctrls.wrQLenPdf::55                      0                       # What write queue length does an incoming req see
system.mem_ctrls.wrQLenPdf::56                      0                       # What write queue length does an incoming req see
system.mem_ctrls.wrQLenPdf::57                      0                       # What write queue length does an incoming req see
system.mem_ctrls.wrQLenPdf::58                      0                       # What write queue length does an incoming req see
system.mem_ctrls.wrQLenPdf::59                      0                       # What write queue length does an incoming req see
system.mem_ctrls.wrQLenPdf::60                      0                       # What write queue length does an incoming req see
system.mem_ctrls.wrQLenPdf::61                      0                       # What write queue length does an incoming req see
system.mem_ctrls.wrQLenPdf::62                      0                       # What write queue length does an incoming req see
system.mem_ctrls.wrQLenPdf::63                      0                       # What write queue length does an incoming req see
system.mem_ctrls.bytesPerActivate::samples      1176437                       # Bytes accessed per row activation
system.mem_ctrls.bytesPerActivate::mean    129.077586                       # Bytes accessed per row activation
system.mem_ctrls.bytesPerActivate::gmean   100.313782                       # Bytes accessed per row activation
system.mem_ctrls.bytesPerActivate::stdev   136.060567                       # Bytes accessed per row activation
system.mem_ctrls.bytesPerActivate::0-127       677408     57.58%     57.58% # Bytes accessed per row activation
system.mem_ctrls.bytesPerActivate::128-255       373296     31.73%     89.31% # Bytes accessed per row activation
system.mem_ctrls.bytesPerActivate::256-383        80235      6.82%     96.13% # Bytes accessed per row activation
system.mem_ctrls.bytesPerActivate::384-511        13757      1.17%     97.30% # Bytes accessed per row activation
system.mem_ctrls.bytesPerActivate::512-639         9352      0.79%     98.10% # Bytes accessed per row activation
system.mem_ctrls.bytesPerActivate::640-767         5091      0.43%     98.53% # Bytes accessed per row activation
system.mem_ctrls.bytesPerActivate::768-895         2899      0.25%     98.78% # Bytes accessed per row activation
system.mem_ctrls.bytesPerActivate::896-1023         2042      0.17%     98.95% # Bytes accessed per row activation
system.mem_ctrls.bytesPerActivate::1024-1151        12357      1.05%    100.00% # Bytes accessed per row activation
system.mem_ctrls.bytesPerActivate::total      1176437                       # Bytes accessed per row activation
system.mem_ctrls.rdPerTurnAround::samples        15246                       # Reads before turning the bus around for writes
system.mem_ctrls.rdPerTurnAround::mean     138.802046                       # Reads before turning the bus around for writes
system.mem_ctrls.rdPerTurnAround::gmean     93.411397                       # Reads before turning the bus around for writes
system.mem_ctrls.rdPerTurnAround::stdev    201.733893                       # Reads before turning the bus around for writes
system.mem_ctrls.rdPerTurnAround::0-1023        15243     99.98%     99.98% # Reads before turning the bus around for writes
system.mem_ctrls.rdPerTurnAround::1024-2047            2      0.01%     99.99% # Reads before turning the bus around for writes
system.mem_ctrls.rdPerTurnAround::19456-20479            1      0.01%    100.00% # Reads before turning the bus around for writes
system.mem_ctrls.rdPerTurnAround::total         15246                       # Reads before turning the bus around for writes
system.mem_ctrls.wrPerTurnAround::samples        15246                       # Writes before turning the bus around for reads
system.mem_ctrls.wrPerTurnAround::mean      16.811557                       # Writes before turning the bus around for reads
system.mem_ctrls.wrPerTurnAround::gmean     16.774463                       # Writes before turning the bus around for reads
system.mem_ctrls.wrPerTurnAround::stdev      1.153477                       # Writes before turning the bus around for reads
system.mem_ctrls.wrPerTurnAround::16             9502     62.32%     62.32% # Writes before turning the bus around for reads
system.mem_ctrls.wrPerTurnAround::17              321      2.11%     64.43% # Writes before turning the bus around for reads
system.mem_ctrls.wrPerTurnAround::18             4686     30.74%     95.17% # Writes before turning the bus around for reads
system.mem_ctrls.wrPerTurnAround::19              516      3.38%     98.55% # Writes before turning the bus around for reads
system.mem_ctrls.wrPerTurnAround::20              116      0.76%     99.31% # Writes before turning the bus around for reads
system.mem_ctrls.wrPerTurnAround::21               50      0.33%     99.64% # Writes before turning the bus around for reads
system.mem_ctrls.wrPerTurnAround::22               25      0.16%     99.80% # Writes before turning the bus around for reads
system.mem_ctrls.wrPerTurnAround::23               11      0.07%     99.88% # Writes before turning the bus around for reads
system.mem_ctrls.wrPerTurnAround::24                9      0.06%     99.93% # Writes before turning the bus around for reads
system.mem_ctrls.wrPerTurnAround::25                2      0.01%     99.95% # Writes before turning the bus around for reads
system.mem_ctrls.wrPerTurnAround::26                2      0.01%     99.96% # Writes before turning the bus around for reads
system.mem_ctrls.wrPerTurnAround::27                3      0.02%     99.98% # Writes before turning the bus around for reads
system.mem_ctrls.wrPerTurnAround::31                1      0.01%     99.99% # Writes before turning the bus around for reads
system.mem_ctrls.wrPerTurnAround::32                1      0.01%     99.99% # Writes before turning the bus around for reads
system.mem_ctrls.wrPerTurnAround::33                1      0.01%    100.00% # Writes before turning the bus around for reads
system.mem_ctrls.wrPerTurnAround::total         15246                       # Writes before turning the bus around for reads
system.mem_ctrls.totQLat                  49593546393                       # Total ticks spent queuing
system.mem_ctrls.totMemAccLat             89276458893                       # Total ticks spent from burst creation until serviced by the DRAM
system.mem_ctrls.totBusLat                10582110000                       # Total ticks spent in databus transfers
system.mem_ctrls.avgQLat                     23432.73                       # Average queueing delay per DRAM burst
system.mem_ctrls.avgBusLat                    5000.00                       # Average bus latency per DRAM burst
system.mem_ctrls.avgMemAccLat                42182.73                       # Average memory access latency per DRAM burst
system.mem_ctrls.avgRdBW                       539.29                       # Average DRAM read bandwidth in MiByte/s
system.mem_ctrls.avgWrBW                        65.31                       # Average achieved write bandwidth in MiByte/s
system.mem_ctrls.avgRdBWSys                    539.76                       # Average system read bandwidth in MiByte/s
system.mem_ctrls.avgWrBWSys                     65.32                       # Average system write bandwidth in MiByte/s
system.mem_ctrls.peakBW                      12800.00                       # Theoretical peak bandwidth in MiByte/s
system.mem_ctrls.busUtil                         4.72                       # Data bus utilization in percentage
system.mem_ctrls.busUtilRead                     4.21                       # Data bus utilization in percentage for reads
system.mem_ctrls.busUtilWrite                    0.51                       # Data bus utilization in percentage for writes
system.mem_ctrls.avgRdQLen                       1.43                       # Average read queue length when enqueuing
system.mem_ctrls.avgWrQLen                      24.91                       # Average write queue length when enqueuing
system.mem_ctrls.readRowHits                  1125712                       # Number of row buffer hits during reads
system.mem_ctrls.writeRowHits                   70568                       # Number of row buffer hits during writes
system.mem_ctrls.readRowHitRate                 53.19                       # Row buffer hit rate for reads
system.mem_ctrls.writeRowHitRate                27.53                       # Row buffer hit rate for writes
system.mem_ctrls.avgGap                     105771.12                       # Average gap between requests
system.mem_ctrls.pageHitRate                    50.42                       # Row buffer hit rate, read and write combined
system.mem_ctrls.memoryStateTime::IDLE     3042441552                       # Time in different power states
system.mem_ctrls.memoryStateTime::REF      8386820000                       # Time in different power states
system.mem_ctrls.memoryStateTime::PRE_PDN            0                       # Time in different power states
system.mem_ctrls.memoryStateTime::ACT    239732078448                       # Time in different power states
system.mem_ctrls.memoryStateTime::ACT_PDN            0                       # Time in different power states
system.mem_ctrls.actEnergy::0              4798899000                       # Energy for activate commands per rank (pJ)
system.mem_ctrls.actEnergy::1              4094783280                       # Energy for activate commands per rank (pJ)
system.mem_ctrls.preEnergy::0              2618446875                       # Energy for precharge commands per rank (pJ)
system.mem_ctrls.preEnergy::1              2234256750                       # Energy for precharge commands per rank (pJ)
system.mem_ctrls.readEnergy::0             8847883200                       # Energy for read commands per rank (pJ)
system.mem_ctrls.readEnergy::1             7658859000                       # Energy for read commands per rank (pJ)
system.mem_ctrls.writeEnergy::0             893617920                       # Energy for write commands per rank (pJ)
system.mem_ctrls.writeEnergy::1             767264400                       # Energy for write commands per rank (pJ)
system.mem_ctrls.refreshEnergy::0         16404619920                       # Energy for refresh commands per rank (pJ)
system.mem_ctrls.refreshEnergy::1         16404619920                       # Energy for refresh commands per rank (pJ)
system.mem_ctrls.actBackEnergy::0        165646099440                       # Energy for active background per rank (pJ)
system.mem_ctrls.actBackEnergy::1        164139018300                       # Energy for active background per rank (pJ)
system.mem_ctrls.preBackEnergy::0          5393199750                       # Energy for precharge background per rank (pJ)
system.mem_ctrls.preBackEnergy::1          6715200750                       # Energy for precharge background per rank (pJ)
system.mem_ctrls.totalEnergy::0          204602766105                       # Total energy per rank (pJ)
system.mem_ctrls.totalEnergy::1          202014002400                       # Total energy per rank (pJ)
system.mem_ctrls.averagePower::0           814.626874                       # Core power per rank (mW)
system.mem_ctrls.averagePower::1           804.319699                       # Core power per rank (mW)
system.cpu_voltage_domain.voltage                   1                       # Voltage in Volts
system.cpu_clk_domain.clock                       500                       # Clock period in ticks
system.tol2bus.trans_dist::ReadReq            6623611                       # Transaction distribution
system.tol2bus.trans_dist::ReadResp           6623545                       # Transaction distribution
system.tol2bus.trans_dist::ReadRespWithInvalidate           65                       # Transaction distribution
system.tol2bus.trans_dist::WriteReq              2988                       # Transaction distribution
system.tol2bus.trans_dist::WriteResp             2988                       # Transaction distribution
system.tol2bus.trans_dist::Writeback           601173                       # Transaction distribution
system.tol2bus.trans_dist::HardPFReq          1038783                       # Transaction distribution
system.tol2bus.trans_dist::WriteInvalidateReq          128                       # Transaction distribution
system.tol2bus.trans_dist::UpgradeReq          220069                       # Transaction distribution
system.tol2bus.trans_dist::SCUpgradeReq         40468                       # Transaction distribution
system.tol2bus.trans_dist::UpgradeResp         260537                       # Transaction distribution
system.tol2bus.trans_dist::SCUpgradeFailReq         1307                       # Transaction distribution
system.tol2bus.trans_dist::UpgradeFailResp         1307                       # Transaction distribution
system.tol2bus.trans_dist::ReadExReq           314239                       # Transaction distribution
system.tol2bus.trans_dist::ReadExResp          314239                       # Transaction distribution
system.tol2bus.pkt_count_system.cpu0.icache.mem_side::system.l2.cpu_side       165835                       # Packet count per connected master and slave (bytes)
system.tol2bus.pkt_count_system.cpu0.dcache.mem_side::system.l2.cpu_side      1119183                       # Packet count per connected master and slave (bytes)
system.tol2bus.pkt_count_system.cpu0.itb.walker.dma::system.l2.cpu_side        12847                       # Packet count per connected master and slave (bytes)
system.tol2bus.pkt_count_system.cpu0.dtb.walker.dma::system.l2.cpu_side       309550                       # Packet count per connected master and slave (bytes)
system.tol2bus.pkt_count_system.cpu1.icache.mem_side::system.l2.cpu_side       247968                       # Packet count per connected master and slave (bytes)
system.tol2bus.pkt_count_system.cpu1.dcache.mem_side::system.l2.cpu_side      1025401                       # Packet count per connected master and slave (bytes)
system.tol2bus.pkt_count_system.cpu1.itb.walker.dma::system.l2.cpu_side        16274                       # Packet count per connected master and slave (bytes)
system.tol2bus.pkt_count_system.cpu1.dtb.walker.dma::system.l2.cpu_side       313497                       # Packet count per connected master and slave (bytes)
system.tol2bus.pkt_count_system.cpu2.icache.mem_side::system.l2.cpu_side       803042                       # Packet count per connected master and slave (bytes)
system.tol2bus.pkt_count_system.cpu2.dcache.mem_side::system.l2.cpu_side      1413624                       # Packet count per connected master and slave (bytes)
system.tol2bus.pkt_count_system.cpu2.itb.walker.dma::system.l2.cpu_side        25886                       # Packet count per connected master and slave (bytes)
system.tol2bus.pkt_count_system.cpu2.dtb.walker.dma::system.l2.cpu_side       373618                       # Packet count per connected master and slave (bytes)
system.tol2bus.pkt_count_system.cpu3.icache.mem_side::system.l2.cpu_side       197040                       # Packet count per connected master and slave (bytes)
system.tol2bus.pkt_count_system.cpu3.dcache.mem_side::system.l2.cpu_side       978727                       # Packet count per connected master and slave (bytes)
system.tol2bus.pkt_count_system.cpu3.itb.walker.dma::system.l2.cpu_side         9388                       # Packet count per connected master and slave (bytes)
system.tol2bus.pkt_count_system.cpu3.dtb.walker.dma::system.l2.cpu_side       304513                       # Packet count per connected master and slave (bytes)
system.tol2bus.pkt_count_system.cpu4.icache.mem_side::system.l2.cpu_side       200034                       # Packet count per connected master and slave (bytes)
system.tol2bus.pkt_count_system.cpu4.dcache.mem_side::system.l2.cpu_side       984019                       # Packet count per connected master and slave (bytes)
system.tol2bus.pkt_count_system.cpu4.itb.walker.dma::system.l2.cpu_side         9514                       # Packet count per connected master and slave (bytes)
system.tol2bus.pkt_count_system.cpu4.dtb.walker.dma::system.l2.cpu_side       301651                       # Packet count per connected master and slave (bytes)
system.tol2bus.pkt_count_system.cpu5.icache.mem_side::system.l2.cpu_side       254182                       # Packet count per connected master and slave (bytes)
system.tol2bus.pkt_count_system.cpu5.dcache.mem_side::system.l2.cpu_side      1054613                       # Packet count per connected master and slave (bytes)
system.tol2bus.pkt_count_system.cpu5.itb.walker.dma::system.l2.cpu_side        14364                       # Packet count per connected master and slave (bytes)
system.tol2bus.pkt_count_system.cpu5.dtb.walker.dma::system.l2.cpu_side       311868                       # Packet count per connected master and slave (bytes)
system.tol2bus.pkt_count_system.cpu6.icache.mem_side::system.l2.cpu_side       470682                       # Packet count per connected master and slave (bytes)
system.tol2bus.pkt_count_system.cpu6.dcache.mem_side::system.l2.cpu_side      1353224                       # Packet count per connected master and slave (bytes)
system.tol2bus.pkt_count_system.cpu6.itb.walker.dma::system.l2.cpu_side        26217                       # Packet count per connected master and slave (bytes)
system.tol2bus.pkt_count_system.cpu6.dtb.walker.dma::system.l2.cpu_side       329809                       # Packet count per connected master and slave (bytes)
system.tol2bus.pkt_count_system.cpu7.icache.mem_side::system.l2.cpu_side       298708                       # Packet count per connected master and slave (bytes)
system.tol2bus.pkt_count_system.cpu7.dcache.mem_side::system.l2.cpu_side      1068135                       # Packet count per connected master and slave (bytes)
system.tol2bus.pkt_count_system.cpu7.itb.walker.dma::system.l2.cpu_side        18521                       # Packet count per connected master and slave (bytes)
system.tol2bus.pkt_count_system.cpu7.dtb.walker.dma::system.l2.cpu_side       315995                       # Packet count per connected master and slave (bytes)
system.tol2bus.pkt_count::total              14327929                       # Packet count per connected master and slave (bytes)
system.tol2bus.pkt_size_system.cpu0.icache.mem_side::system.l2.cpu_side      5306688                       # Cumulative packet size per connected master and slave (bytes)
system.tol2bus.pkt_size_system.cpu0.dcache.mem_side::system.l2.cpu_side     36004651                       # Cumulative packet size per connected master and slave (bytes)
system.tol2bus.pkt_size_system.cpu0.itb.walker.dma::system.l2.cpu_side        23600                       # Cumulative packet size per connected master and slave (bytes)
system.tol2bus.pkt_size_system.cpu0.dtb.walker.dma::system.l2.cpu_side       610944                       # Cumulative packet size per connected master and slave (bytes)
system.tol2bus.pkt_size_system.cpu1.icache.mem_side::system.l2.cpu_side      7934976                       # Cumulative packet size per connected master and slave (bytes)
system.tol2bus.pkt_size_system.cpu1.dcache.mem_side::system.l2.cpu_side     31643852                       # Cumulative packet size per connected master and slave (bytes)
system.tol2bus.pkt_size_system.cpu1.itb.walker.dma::system.l2.cpu_side        22400                       # Cumulative packet size per connected master and slave (bytes)
system.tol2bus.pkt_size_system.cpu1.dtb.walker.dma::system.l2.cpu_side       607496                       # Cumulative packet size per connected master and slave (bytes)
system.tol2bus.pkt_size_system.cpu2.icache.mem_side::system.l2.cpu_side     25696768                       # Cumulative packet size per connected master and slave (bytes)
system.tol2bus.pkt_size_system.cpu2.dcache.mem_side::system.l2.cpu_side     46216876                       # Cumulative packet size per connected master and slave (bytes)
system.tol2bus.pkt_size_system.cpu2.itb.walker.dma::system.l2.cpu_side        39108                       # Cumulative packet size per connected master and slave (bytes)
system.tol2bus.pkt_size_system.cpu2.dtb.walker.dma::system.l2.cpu_side       702972                       # Cumulative packet size per connected master and slave (bytes)
system.tol2bus.pkt_size_system.cpu3.icache.mem_side::system.l2.cpu_side      6305280                       # Cumulative packet size per connected master and slave (bytes)
system.tol2bus.pkt_size_system.cpu3.dcache.mem_side::system.l2.cpu_side     30314988                       # Cumulative packet size per connected master and slave (bytes)
system.tol2bus.pkt_size_system.cpu3.itb.walker.dma::system.l2.cpu_side        15628                       # Cumulative packet size per connected master and slave (bytes)
system.tol2bus.pkt_size_system.cpu3.dtb.walker.dma::system.l2.cpu_side       602104                       # Cumulative packet size per connected master and slave (bytes)
system.tol2bus.pkt_size_system.cpu4.icache.mem_side::system.l2.cpu_side      6401024                       # Cumulative packet size per connected master and slave (bytes)
system.tol2bus.pkt_size_system.cpu4.dcache.mem_side::system.l2.cpu_side     30606956                       # Cumulative packet size per connected master and slave (bytes)
system.tol2bus.pkt_size_system.cpu4.itb.walker.dma::system.l2.cpu_side        15552                       # Cumulative packet size per connected master and slave (bytes)
system.tol2bus.pkt_size_system.cpu4.dtb.walker.dma::system.l2.cpu_side       593640                       # Cumulative packet size per connected master and slave (bytes)
system.tol2bus.pkt_size_system.cpu5.icache.mem_side::system.l2.cpu_side      8133376                       # Cumulative packet size per connected master and slave (bytes)
system.tol2bus.pkt_size_system.cpu5.dcache.mem_side::system.l2.cpu_side     33223116                       # Cumulative packet size per connected master and slave (bytes)
system.tol2bus.pkt_size_system.cpu5.itb.walker.dma::system.l2.cpu_side        26320                       # Cumulative packet size per connected master and slave (bytes)
system.tol2bus.pkt_size_system.cpu5.dtb.walker.dma::system.l2.cpu_side       617704                       # Cumulative packet size per connected master and slave (bytes)
system.tol2bus.pkt_size_system.cpu6.icache.mem_side::system.l2.cpu_side     15061376                       # Cumulative packet size per connected master and slave (bytes)
system.tol2bus.pkt_size_system.cpu6.dcache.mem_side::system.l2.cpu_side     44240880                       # Cumulative packet size per connected master and slave (bytes)
system.tol2bus.pkt_size_system.cpu6.itb.walker.dma::system.l2.cpu_side        40640                       # Cumulative packet size per connected master and slave (bytes)
system.tol2bus.pkt_size_system.cpu6.dtb.walker.dma::system.l2.cpu_side       634372                       # Cumulative packet size per connected master and slave (bytes)
system.tol2bus.pkt_size_system.cpu7.icache.mem_side::system.l2.cpu_side      9558592                       # Cumulative packet size per connected master and slave (bytes)
system.tol2bus.pkt_size_system.cpu7.dcache.mem_side::system.l2.cpu_side     33313908                       # Cumulative packet size per connected master and slave (bytes)
system.tol2bus.pkt_size_system.cpu7.itb.walker.dma::system.l2.cpu_side        25360                       # Cumulative packet size per connected master and slave (bytes)
system.tol2bus.pkt_size_system.cpu7.dtb.walker.dma::system.l2.cpu_side       609076                       # Cumulative packet size per connected master and slave (bytes)
system.tol2bus.pkt_size::total              375150223                       # Cumulative packet size per connected master and slave (bytes)
system.tol2bus.snoops                         1717520                       # Total snoops (count)
system.tol2bus.snoop_fanout::samples          8853084                       # Request fanout histogram
system.tol2bus.snoop_fanout::mean           47.117350                       # Request fanout histogram
system.tol2bus.snoop_fanout::stdev           0.321837                       # Request fanout histogram
system.tol2bus.snoop_fanout::underflows             0      0.00%      0.00% # Request fanout histogram
system.tol2bus.snoop_fanout::0                      0      0.00%      0.00% # Request fanout histogram
system.tol2bus.snoop_fanout::1                      0      0.00%      0.00% # Request fanout histogram
system.tol2bus.snoop_fanout::2                      0      0.00%      0.00% # Request fanout histogram
system.tol2bus.snoop_fanout::3                      0      0.00%      0.00% # Request fanout histogram
system.tol2bus.snoop_fanout::4                      0      0.00%      0.00% # Request fanout histogram
system.tol2bus.snoop_fanout::5                      0      0.00%      0.00% # Request fanout histogram
system.tol2bus.snoop_fanout::6                      0      0.00%      0.00% # Request fanout histogram
system.tol2bus.snoop_fanout::7                      0      0.00%      0.00% # Request fanout histogram
system.tol2bus.snoop_fanout::8                      0      0.00%      0.00% # Request fanout histogram
system.tol2bus.snoop_fanout::9                      0      0.00%      0.00% # Request fanout histogram
system.tol2bus.snoop_fanout::10                     0      0.00%      0.00% # Request fanout histogram
system.tol2bus.snoop_fanout::11                     0      0.00%      0.00% # Request fanout histogram
system.tol2bus.snoop_fanout::12                     0      0.00%      0.00% # Request fanout histogram
system.tol2bus.snoop_fanout::13                     0      0.00%      0.00% # Request fanout histogram
system.tol2bus.snoop_fanout::14                     0      0.00%      0.00% # Request fanout histogram
system.tol2bus.snoop_fanout::15                     0      0.00%      0.00% # Request fanout histogram
system.tol2bus.snoop_fanout::16                     0      0.00%      0.00% # Request fanout histogram
system.tol2bus.snoop_fanout::17                     0      0.00%      0.00% # Request fanout histogram
system.tol2bus.snoop_fanout::18                     0      0.00%      0.00% # Request fanout histogram
system.tol2bus.snoop_fanout::19                     0      0.00%      0.00% # Request fanout histogram
system.tol2bus.snoop_fanout::20                     0      0.00%      0.00% # Request fanout histogram
system.tol2bus.snoop_fanout::21                     0      0.00%      0.00% # Request fanout histogram
system.tol2bus.snoop_fanout::22                     0      0.00%      0.00% # Request fanout histogram
system.tol2bus.snoop_fanout::23                     0      0.00%      0.00% # Request fanout histogram
system.tol2bus.snoop_fanout::24                     0      0.00%      0.00% # Request fanout histogram
system.tol2bus.snoop_fanout::25                     0      0.00%      0.00% # Request fanout histogram
system.tol2bus.snoop_fanout::26                     0      0.00%      0.00% # Request fanout histogram
system.tol2bus.snoop_fanout::27                     0      0.00%      0.00% # Request fanout histogram
system.tol2bus.snoop_fanout::28                     0      0.00%      0.00% # Request fanout histogram
system.tol2bus.snoop_fanout::29                     0      0.00%      0.00% # Request fanout histogram
system.tol2bus.snoop_fanout::30                     0      0.00%      0.00% # Request fanout histogram
system.tol2bus.snoop_fanout::31                     0      0.00%      0.00% # Request fanout histogram
system.tol2bus.snoop_fanout::32                     0      0.00%      0.00% # Request fanout histogram
system.tol2bus.snoop_fanout::33                     0      0.00%      0.00% # Request fanout histogram
system.tol2bus.snoop_fanout::34                     0      0.00%      0.00% # Request fanout histogram
system.tol2bus.snoop_fanout::35                     0      0.00%      0.00% # Request fanout histogram
system.tol2bus.snoop_fanout::36                     0      0.00%      0.00% # Request fanout histogram
system.tol2bus.snoop_fanout::37                     0      0.00%      0.00% # Request fanout histogram
system.tol2bus.snoop_fanout::38                     0      0.00%      0.00% # Request fanout histogram
system.tol2bus.snoop_fanout::39                     0      0.00%      0.00% # Request fanout histogram
system.tol2bus.snoop_fanout::40                     0      0.00%      0.00% # Request fanout histogram
system.tol2bus.snoop_fanout::41                     0      0.00%      0.00% # Request fanout histogram
system.tol2bus.snoop_fanout::42                     0      0.00%      0.00% # Request fanout histogram
system.tol2bus.snoop_fanout::43                     0      0.00%      0.00% # Request fanout histogram
system.tol2bus.snoop_fanout::44                     0      0.00%      0.00% # Request fanout histogram
system.tol2bus.snoop_fanout::45                     0      0.00%      0.00% # Request fanout histogram
system.tol2bus.snoop_fanout::46                     0      0.00%      0.00% # Request fanout histogram
system.tol2bus.snoop_fanout::47               7814171     88.26%     88.26% # Request fanout histogram
system.tol2bus.snoop_fanout::48               1038913     11.74%    100.00% # Request fanout histogram
system.tol2bus.snoop_fanout::overflows              0      0.00%    100.00% # Request fanout histogram
system.tol2bus.snoop_fanout::min_value             47                       # Request fanout histogram
system.tol2bus.snoop_fanout::max_value             48                       # Request fanout histogram
system.tol2bus.snoop_fanout::total            8853084                       # Request fanout histogram
system.tol2bus.reqLayer0.occupancy         4523946998                       # Layer occupancy (ticks)
system.tol2bus.reqLayer0.utilization              1.8                       # Layer utilization (%)
system.tol2bus.snoopLayer0.occupancy             3000                       # Layer occupancy (ticks)
system.tol2bus.snoopLayer0.utilization            0.0                       # Layer utilization (%)
system.tol2bus.respLayer0.occupancy         125342949                       # Layer occupancy (ticks)
system.tol2bus.respLayer0.utilization             0.0                       # Layer utilization (%)
system.tol2bus.respLayer1.occupancy         825285192                       # Layer occupancy (ticks)
system.tol2bus.respLayer1.utilization             0.3                       # Layer utilization (%)
system.tol2bus.respLayer2.occupancy           6982168                       # Layer occupancy (ticks)
system.tol2bus.respLayer2.utilization             0.0                       # Layer utilization (%)
system.tol2bus.respLayer3.occupancy         157059919                       # Layer occupancy (ticks)
system.tol2bus.respLayer3.utilization             0.1                       # Layer utilization (%)
system.tol2bus.respLayer6.occupancy         187487075                       # Layer occupancy (ticks)
system.tol2bus.respLayer6.utilization             0.1                       # Layer utilization (%)
system.tol2bus.respLayer7.occupancy         790840731                       # Layer occupancy (ticks)
system.tol2bus.respLayer7.utilization             0.3                       # Layer utilization (%)
system.tol2bus.respLayer8.occupancy          10697442                       # Layer occupancy (ticks)
system.tol2bus.respLayer8.utilization             0.0                       # Layer utilization (%)
system.tol2bus.respLayer9.occupancy         161827437                       # Layer occupancy (ticks)
system.tol2bus.respLayer9.utilization             0.1                       # Layer utilization (%)
system.tol2bus.respLayer12.occupancy        604474958                       # Layer occupancy (ticks)
system.tol2bus.respLayer12.utilization            0.2                       # Layer utilization (%)
system.tol2bus.respLayer13.occupancy       1027312108                       # Layer occupancy (ticks)
system.tol2bus.respLayer13.utilization            0.4                       # Layer utilization (%)
system.tol2bus.respLayer14.occupancy         16138929                       # Layer occupancy (ticks)
system.tol2bus.respLayer14.utilization            0.0                       # Layer utilization (%)
system.tol2bus.respLayer15.occupancy        198115370                       # Layer occupancy (ticks)
system.tol2bus.respLayer15.utilization            0.1                       # Layer utilization (%)
system.tol2bus.respLayer18.occupancy        149113730                       # Layer occupancy (ticks)
system.tol2bus.respLayer18.utilization            0.1                       # Layer utilization (%)
system.tol2bus.respLayer19.occupancy        755787806                       # Layer occupancy (ticks)
system.tol2bus.respLayer19.utilization            0.3                       # Layer utilization (%)
system.tol2bus.respLayer20.occupancy          5508438                       # Layer occupancy (ticks)
system.tol2bus.respLayer20.utilization            0.0                       # Layer utilization (%)
system.tol2bus.respLayer21.occupancy        154184942                       # Layer occupancy (ticks)
system.tol2bus.respLayer21.utilization            0.1                       # Layer utilization (%)
system.tol2bus.respLayer24.occupancy        151315124                       # Layer occupancy (ticks)
system.tol2bus.respLayer24.utilization            0.1                       # Layer utilization (%)
system.tol2bus.respLayer25.occupancy        758612400                       # Layer occupancy (ticks)
system.tol2bus.respLayer25.utilization            0.3                       # Layer utilization (%)
system.tol2bus.respLayer26.occupancy          5651947                       # Layer occupancy (ticks)
system.tol2bus.respLayer26.utilization            0.0                       # Layer utilization (%)
system.tol2bus.respLayer27.occupancy        153436963                       # Layer occupancy (ticks)
system.tol2bus.respLayer27.utilization            0.1                       # Layer utilization (%)
system.tol2bus.respLayer30.occupancy        192054354                       # Layer occupancy (ticks)
system.tol2bus.respLayer30.utilization            0.1                       # Layer utilization (%)
system.tol2bus.respLayer31.occupancy        798891626                       # Layer occupancy (ticks)
system.tol2bus.respLayer31.utilization            0.3                       # Layer utilization (%)
system.tol2bus.respLayer32.occupancy          7840412                       # Layer occupancy (ticks)
system.tol2bus.respLayer32.utilization            0.0                       # Layer utilization (%)
system.tol2bus.respLayer33.occupancy        157668713                       # Layer occupancy (ticks)
system.tol2bus.respLayer33.utilization            0.1                       # Layer utilization (%)
[...]
system.cpu7.dcache.StoreCondFailReq_mshr_miss_latency::switch_cpus7.data      1023500                       # number of StoreCondFailReq MSHR miss cycles
system.cpu7.dcache.StoreCondFailReq_mshr_miss_latency::total      1023500                       # number of StoreCondFailReq MSHR miss cycles
system.cpu7.dcache.demand_mshr_miss_latency::switch_cpus7.data   4565958871                       # number of demand (read+write) MSHR miss cycles
system.cpu7.dcache.demand_mshr_miss_latency::total   4565958871                       # number of demand (read+write) MSHR miss cycles
system.cpu7.dcache.overall_mshr_miss_latency::switch_cpus7.data  16951259627                       # number of overall MSHR miss cycles
system.cpu7.dcache.overall_mshr_miss_latency::total  16951259627                       # number of overall MSHR miss cycles
system.cpu7.dcache.ReadReq_mshr_uncacheable_latency::switch_cpus7.data     12346500                       # number of ReadReq MSHR uncacheable cycles
system.cpu7.dcache.ReadReq_mshr_uncacheable_latency::total     12346500                       # number of ReadReq MSHR uncacheable cycles
system.cpu7.dcache.WriteReq_mshr_uncacheable_latency::switch_cpus7.data      9938997                       # number of WriteReq MSHR uncacheable cycles
system.cpu7.dcache.WriteReq_mshr_uncacheable_latency::total      9938997                       # number of WriteReq MSHR uncacheable cycles
system.cpu7.dcache.overall_mshr_uncacheable_latency::switch_cpus7.data     22285497                       # number of overall MSHR uncacheable cycles
system.cpu7.dcache.overall_mshr_uncacheable_latency::total     22285497                       # number of overall MSHR uncacheable cycles
system.cpu7.dcache.ReadReq_mshr_miss_rate::switch_cpus7.data     0.010708                       # mshr miss rate for ReadReq accesses
system.cpu7.dcache.ReadReq_mshr_miss_rate::total     0.010708                       # mshr miss rate for ReadReq accesses
system.cpu7.dcache.WriteReq_mshr_miss_rate::switch_cpus7.data     0.014426                       # mshr miss rate for WriteReq accesses
system.cpu7.dcache.WriteReq_mshr_miss_rate::total     0.014426                       # mshr miss rate for WriteReq accesses
system.cpu7.dcache.SoftPFReq_mshr_miss_rate::switch_cpus7.data     0.165670                       # mshr miss rate for SoftPFReq accesses
system.cpu7.dcache.SoftPFReq_mshr_miss_rate::total     0.165670                       # mshr miss rate for SoftPFReq accesses
system.cpu7.dcache.LoadLockedReq_mshr_miss_rate::switch_cpus7.data     0.050395                       # mshr miss rate for LoadLockedReq accesses
system.cpu7.dcache.LoadLockedReq_mshr_miss_rate::total     0.050395                       # mshr miss rate for LoadLockedReq accesses
system.cpu7.dcache.StoreCondReq_mshr_miss_rate::switch_cpus7.data     0.126373                       # mshr miss rate for StoreCondReq accesses
system.cpu7.dcache.StoreCondReq_mshr_miss_rate::total     0.126373                       # mshr miss rate for StoreCondReq accesses
system.cpu7.dcache.demand_mshr_miss_rate::switch_cpus7.data     0.011467                       # mshr miss rate for demand accesses
system.cpu7.dcache.demand_mshr_miss_rate::total     0.011467                       # mshr miss rate for demand accesses
system.cpu7.dcache.overall_mshr_miss_rate::switch_cpus7.data     0.025704                       # mshr miss rate for overall accesses
system.cpu7.dcache.overall_mshr_miss_rate::total     0.025704                       # mshr miss rate for overall accesses
system.cpu7.dcache.ReadReq_avg_mshr_miss_latency::switch_cpus7.data 25097.077392                       # average ReadReq mshr miss latency
system.cpu7.dcache.ReadReq_avg_mshr_miss_latency::total 25097.077392                       # average ReadReq mshr miss latency
system.cpu7.dcache.WriteReq_avg_mshr_miss_latency::switch_cpus7.data  9876.035516                       # average WriteReq mshr miss latency
system.cpu7.dcache.WriteReq_avg_mshr_miss_latency::total  9876.035516                       # average WriteReq mshr miss latency
system.cpu7.dcache.SoftPFReq_avg_mshr_miss_latency::switch_cpus7.data 39112.917074                       # average SoftPFReq mshr miss latency
system.cpu7.dcache.SoftPFReq_avg_mshr_miss_latency::total 39112.917074                       # average SoftPFReq mshr miss latency
system.cpu7.dcache.LoadLockedReq_avg_mshr_miss_latency::switch_cpus7.data  9643.753197                       # average LoadLockedReq mshr miss latency
system.cpu7.dcache.LoadLockedReq_avg_mshr_miss_latency::total  9643.753197                       # average LoadLockedReq mshr miss latency
system.cpu7.dcache.StoreCondReq_avg_mshr_miss_latency::switch_cpus7.data  4233.856507                       # average StoreCondReq mshr miss latency
system.cpu7.dcache.StoreCondReq_avg_mshr_miss_latency::total  4233.856507                       # average StoreCondReq mshr miss latency
system.cpu7.dcache.StoreCondFailReq_avg_mshr_miss_latency::switch_cpus7.data          inf                       # average StoreCondFailReq mshr miss latency
system.cpu7.dcache.StoreCondFailReq_avg_mshr_miss_latency::total          inf                       # average StoreCondFailReq mshr miss latency
system.cpu7.dcache.demand_avg_mshr_miss_latency::switch_cpus7.data 21190.694162                       # average overall mshr miss latency
system.cpu7.dcache.demand_avg_mshr_miss_latency::total 21190.694162                       # average overall mshr miss latency
system.cpu7.dcache.overall_avg_mshr_miss_latency::switch_cpus7.data 31855.785064                       # average overall mshr miss latency
system.cpu7.dcache.overall_avg_mshr_miss_latency::total 31855.785064                       # average overall mshr miss latency
system.cpu7.dcache.ReadReq_avg_mshr_uncacheable_latency::switch_cpus7.data          inf                       # average ReadReq mshr uncacheable latency
system.cpu7.dcache.ReadReq_avg_mshr_uncacheable_latency::total          inf                       # average ReadReq mshr uncacheable latency
system.cpu7.dcache.WriteReq_avg_mshr_uncacheable_latency::switch_cpus7.data          inf                       # average WriteReq mshr uncacheable latency
system.cpu7.dcache.WriteReq_avg_mshr_uncacheable_latency::total          inf                       # average WriteReq mshr uncacheable latency
system.cpu7.dcache.overall_avg_mshr_uncacheable_latency::switch_cpus7.data          inf                       # average overall mshr uncacheable latency
system.cpu7.dcache.overall_avg_mshr_uncacheable_latency::total          inf                       # average overall mshr uncacheable latency
system.cpu7.dcache.no_allocate_misses               0                       # Number of misses that were no-allocate
system.iocache.tags.replacements                  114                       # number of replacements
system.iocache.tags.tagsinuse               14.913196                       # Cycle average of tags in use
system.iocache.tags.total_refs                      0                       # Total number of references to valid blocks.
system.iocache.tags.sampled_refs                  130                       # Sample count of references to valid blocks.
system.iocache.tags.avg_refs                        0                       # Average number of references to valid blocks.
system.iocache.tags.warmup_cycle         3212731564000                       # Cycle when the warmup percentage was hit.
system.iocache.tags.occ_blocks::realview.ide    14.913196                       # Average occupied blocks per requestor
system.iocache.tags.occ_percent::realview.ide     0.932075                       # Average percentage of cache occupancy
system.iocache.tags.occ_percent::total       0.932075                       # Average percentage of cache occupancy
system.iocache.tags.occ_task_id_blocks::1023           16                       # Occupied blocks per task id
system.iocache.tags.age_task_id_blocks_1023::4           16                       # Occupied blocks per task id
system.iocache.tags.occ_task_id_percent::1023            1                       # Percentage of cache occupancy per task id
system.iocache.tags.tag_accesses                 1178                       # Number of tag accesses
system.iocache.tags.data_accesses                1178                       # Number of data accesses
system.iocache.WriteInvalidateReq_hits::realview.ide          128                       # number of WriteInvalidateReq hits
system.iocache.WriteInvalidateReq_hits::total          128                       # number of WriteInvalidateReq hits
system.iocache.ReadReq_misses::realview.ide            2                       # number of ReadReq misses
system.iocache.ReadReq_misses::total                2                       # number of ReadReq misses
system.iocache.WriteInvalidateReq_misses::realview.ide            1                       # number of WriteInvalidateReq misses
system.iocache.WriteInvalidateReq_misses::total            1                       # number of WriteInvalidateReq misses
system.iocache.demand_misses::realview.ide            2                       # number of demand (read+write) misses
system.iocache.demand_misses::total                 2                       # number of demand (read+write) misses
system.iocache.overall_misses::realview.ide            2                       # number of overall misses
system.iocache.overall_misses::total                2                       # number of overall misses
system.iocache.ReadReq_miss_latency::realview.ide       218999                       # number of ReadReq miss cycles
system.iocache.ReadReq_miss_latency::total       218999                       # number of ReadReq miss cycles
system.iocache.demand_miss_latency::realview.ide       218999                       # number of demand (read+write) miss cycles
system.iocache.demand_miss_latency::total       218999                       # number of demand (read+write) miss cycles
system.iocache.overall_miss_latency::realview.ide       218999                       # number of overall miss cycles
system.iocache.overall_miss_latency::total       218999                       # number of overall miss cycles
system.iocache.ReadReq_accesses::realview.ide            2                       # number of ReadReq accesses(hits+misses)
system.iocache.ReadReq_accesses::total              2                       # number of ReadReq accesses(hits+misses)
system.iocache.WriteInvalidateReq_accesses::realview.ide          129                       # number of WriteInvalidateReq accesses(hits+misses)
system.iocache.WriteInvalidateReq_accesses::total          129                       # number of WriteInvalidateReq accesses(hits+misses)
system.iocache.demand_accesses::realview.ide            2                       # number of demand (read+write) accesses
system.iocache.demand_accesses::total               2                       # number of demand (read+write) accesses
system.iocache.overall_accesses::realview.ide            2                       # number of overall (read+write) accesses
system.iocache.overall_accesses::total              2                       # number of overall (read+write) accesses
system.iocache.ReadReq_miss_rate::realview.ide            1                       # miss rate for ReadReq accesses
system.iocache.ReadReq_miss_rate::total             1                       # miss rate for ReadReq accesses
system.iocache.WriteInvalidateReq_miss_rate::realview.ide     0.007752                       # miss rate for WriteInvalidateReq accesses
system.iocache.WriteInvalidateReq_miss_rate::total     0.007752                       # miss rate for WriteInvalidateReq accesses
system.iocache.demand_miss_rate::realview.ide            1                       # miss rate for demand accesses
system.iocache.demand_miss_rate::total              1                       # miss rate for demand accesses
system.iocache.overall_miss_rate::realview.ide            1                       # miss rate for overall accesses
system.iocache.overall_miss_rate::total             1                       # miss rate for overall accesses
system.iocache.ReadReq_avg_miss_latency::realview.ide 109499.500000                       # average ReadReq miss latency
system.iocache.ReadReq_avg_miss_latency::total 109499.500000                       # average ReadReq miss latency
system.iocache.demand_avg_miss_latency::realview.ide 109499.500000                       # average overall miss latency
system.iocache.demand_avg_miss_latency::total 109499.500000                       # average overall miss latency
system.iocache.overall_avg_miss_latency::realview.ide 109499.500000                       # average overall miss latency
system.iocache.overall_avg_miss_latency::total 109499.500000                       # average overall miss latency
system.iocache.blocked_cycles::no_mshrs             0                       # number of cycles access was blocked
system.iocache.blocked_cycles::no_targets            0                       # number of cycles access was blocked
system.iocache.blocked::no_mshrs                    0                       # number of cycles access was blocked
system.iocache.blocked::no_targets                  0                       # number of cycles access was blocked
system.iocache.avg_blocked_cycles::no_mshrs          nan                       # average number of cycles each access was blocked
system.iocache.avg_blocked_cycles::no_targets          nan                       # average number of cycles each access was blocked
system.iocache.fast_writes                        128                       # number of fast writes performed
system.iocache.cache_copies                         0                       # number of cache copies performed
system.iocache.ReadReq_mshr_misses::realview.ide            2                       # number of ReadReq MSHR misses
system.iocache.ReadReq_mshr_misses::total            2                       # number of ReadReq MSHR misses
system.iocache.WriteInvalidateReq_mshr_misses::realview.ide          128                       # number of WriteInvalidateReq MSHR misses
system.iocache.WriteInvalidateReq_mshr_misses::total          128                       # number of WriteInvalidateReq MSHR misses
system.iocache.demand_mshr_misses::realview.ide            2                       # number of demand (read+write) MSHR misses
system.iocache.demand_mshr_misses::total            2                       # number of demand (read+write) MSHR misses
system.iocache.overall_mshr_misses::realview.ide            2                       # number of overall MSHR misses
system.iocache.overall_mshr_misses::total            2                       # number of overall MSHR misses
system.iocache.ReadReq_mshr_miss_latency::realview.ide       114999                       # number of ReadReq MSHR miss cycles
system.iocache.ReadReq_mshr_miss_latency::total       114999                       # number of ReadReq MSHR miss cycles
system.iocache.WriteInvalidateReq_mshr_miss_latency::realview.ide     14227992                       # number of WriteInvalidateReq MSHR miss cycles
system.iocache.WriteInvalidateReq_mshr_miss_latency::total     14227992                       # number of WriteInvalidateReq MSHR miss cycles
system.iocache.demand_mshr_miss_latency::realview.ide       114999                       # number of demand (read+write) MSHR miss cycles
system.iocache.demand_mshr_miss_latency::total       114999                       # number of demand (read+write) MSHR miss cycles
system.iocache.overall_mshr_miss_latency::realview.ide       114999                       # number of overall MSHR miss cycles
system.iocache.overall_mshr_miss_latency::total       114999                       # number of overall MSHR miss cycles
system.iocache.ReadReq_mshr_miss_rate::realview.ide            1                       # mshr miss rate for ReadReq accesses
system.iocache.ReadReq_mshr_miss_rate::total            1                       # mshr miss rate for ReadReq accesses
system.iocache.WriteInvalidateReq_mshr_miss_rate::realview.ide     0.992248                       # mshr miss rate for WriteInvalidateReq accesses
system.iocache.WriteInvalidateReq_mshr_miss_rate::total     0.992248                       # mshr miss rate for WriteInvalidateReq accesses
system.iocache.demand_mshr_miss_rate::realview.ide            1                       # mshr miss rate for demand accesses
system.iocache.demand_mshr_miss_rate::total            1                       # mshr miss rate for demand accesses
system.iocache.overall_mshr_miss_rate::realview.ide            1                       # mshr miss rate for overall accesses
system.iocache.overall_mshr_miss_rate::total            1                       # mshr miss rate for overall accesses
system.iocache.ReadReq_avg_mshr_miss_latency::realview.ide 57499.500000                       # average ReadReq mshr miss latency
system.iocache.ReadReq_avg_mshr_miss_latency::total 57499.500000                       # average ReadReq mshr miss latency
system.iocache.WriteInvalidateReq_avg_mshr_miss_latency::realview.ide 111156.187500                       # average WriteInvalidateReq mshr miss latency
system.iocache.WriteInvalidateReq_avg_mshr_miss_latency::total 111156.187500                       # average WriteInvalidateReq mshr miss latency
system.iocache.demand_avg_mshr_miss_latency::realview.ide 57499.500000                       # average overall mshr miss latency
system.iocache.demand_avg_mshr_miss_latency::total 57499.500000                       # average overall mshr miss latency
system.iocache.overall_avg_mshr_miss_latency::realview.ide 57499.500000                       # average overall mshr miss latency
system.iocache.overall_avg_mshr_miss_latency::total 57499.500000                       # average overall mshr miss latency
system.iocache.no_allocate_misses                   0                       # Number of misses that were no-allocate
system.switch_cpus0.kern.inst.arm                   0                       # number of arm instructions executed
system.switch_cpus0.kern.inst.quiesce               0                       # number of quiesce instructions executed
system.switch_cpus1.kern.inst.arm                   0                       # number of arm instructions executed
system.switch_cpus1.kern.inst.quiesce               0                       # number of quiesce instructions executed
system.switch_cpus2.kern.inst.arm                   0                       # number of arm instructions executed
system.switch_cpus2.kern.inst.quiesce               0                       # number of quiesce instructions executed
system.switch_cpus3.kern.inst.arm                   0                       # number of arm instructions executed
system.switch_cpus3.kern.inst.quiesce               0                       # number of quiesce instructions executed
system.switch_cpus4.kern.inst.arm                   0                       # number of arm instructions executed
system.switch_cpus4.kern.inst.quiesce               0                       # number of quiesce instructions executed
system.switch_cpus5.kern.inst.arm                   0                       # number of arm instructions executed
system.switch_cpus5.kern.inst.quiesce               0                       # number of quiesce instructions executed
system.switch_cpus6.kern.inst.arm                   0                       # number of arm instructions executed
system.switch_cpus6.kern.inst.quiesce               0                       # number of quiesce instructions executed
system.switch_cpus7.kern.inst.arm                   0                       # number of arm instructions executed
system.switch_cpus7.kern.inst.quiesce               0                       # number of quiesce instructions executed

---------- End Simulation Statistics   ----------
