
---------- Begin Simulation Statistics ----------
sim_seconds                                  0.248118                       # Number of seconds simulated
sim_ticks                                248117765000                       # Number of ticks simulated
final_tick                               3327894389000                       # Number of ticks from beginning of simulation (restored from checkpoints and never reset)
sim_freq                                 1000000000000                       # Frequency of simulated ticks
host_inst_rate                                 229564                       # Simulator instruction rate (inst/s)
host_op_rate                                   241760                       # Simulator op (including micro ops) rate (op/s)
host_tick_rate                               22871835                       # Simulator tick rate (ticks/s)
host_mem_usage                                1005412                       # Number of bytes of host memory used
host_seconds                                 10848.18                       # Real time elapsed on the host
sim_insts                                  2490356723                       # Number of instructions simulated
sim_ops                                    2622651242                       # Number of ops (including micro ops) simulated
system.voltage_domain.voltage                       1                       # Voltage in Volts
system.clk_domain.clock                          1000                       # Clock period in ticks
system.realview.vram.bytes_read::realview.clcd     12288000                       # Number of bytes read from this memory
system.realview.vram.bytes_read::total       12288000                       # Number of bytes read from this memory
system.realview.vram.bytes_written::switch_cpus0.data          256                       # Number of bytes written to this memory
system.realview.vram.bytes_written::total          256                       # Number of bytes written to this memory
system.realview.vram.num_reads::realview.clcd      1536000                       # Number of read requests responded to by this memory
system.realview.vram.num_reads::total         1536000                       # Number of read requests responded to by this memory
system.realview.vram.num_writes::switch_cpus0.data           64                       # Number of write requests responded to by this memory
system.realview.vram.num_writes::total             64                       # Number of write requests responded to by this memory
system.realview.vram.bw_read::realview.clcd     49524870                       # Total read bandwidth from this memory (bytes/s)
system.realview.vram.bw_read::total          49524870                       # Total read bandwidth from this memory (bytes/s)
system.realview.vram.bw_write::switch_cpus0.data         1032                       # Write bandwidth from this memory (bytes/s)
system.realview.vram.bw_write::total             1032                       # Write bandwidth from this memory (bytes/s)
system.realview.vram.bw_total::switch_cpus0.data         1032                       # Total bandwidth to/from this memory (bytes/s)
system.realview.vram.bw_total::realview.clcd     49524870                       # Total bandwidth to/from this memory (bytes/s)
system.realview.vram.bw_total::total         49525902                       # Total bandwidth to/from this memory (bytes/s)
system.mem_ctrls.bytes_read::switch_cpus0.dtb.walker       102528                       # Number of bytes read from this memory
system.mem_ctrls.bytes_read::switch_cpus0.itb.walker         6144                       # Number of bytes read from this memory
system.mem_ctrls.bytes_read::switch_cpus0.inst       207168                       # Number of bytes read from this memory
system.mem_ctrls.bytes_read::switch_cpus0.data      4409728                       # Number of bytes read from this memory
system.mem_ctrls.bytes_read::switch_cpus1.dtb.walker       122240                       # Number of bytes read from this memory
system.mem_ctrls.bytes_read::switch_cpus1.itb.walker         4544                       # Number of bytes read from this memory
system.mem_ctrls.bytes_read::switch_cpus1.inst       118336                       # Number of bytes read from this memory
system.mem_ctrls.bytes_read::switch_cpus1.data      6695680                       # Number of bytes read from this memory
system.mem_ctrls.bytes_read::switch_cpus2.dtb.walker        58688                       # Number of bytes read from this memory
system.mem_ctrls.bytes_read::switch_cpus2.itb.walker        13248                       # Number of bytes read from this memory
system.mem_ctrls.bytes_read::switch_cpus2.inst       733504                       # Number of bytes read from this memory
system.mem_ctrls.bytes_read::switch_cpus2.data      3469056                       # Number of bytes read from this memory
system.mem_ctrls.bytes_read::switch_cpus3.dtb.walker        77376                       # Number of bytes read from this memory
system.mem_ctrls.bytes_read::switch_cpus3.itb.walker        24960                       # Number of bytes read from this memory
system.mem_ctrls.bytes_read::switch_cpus3.inst      1536128                       # Number of bytes read from this memory
system.mem_ctrls.bytes_read::switch_cpus3.data      8767872                       # Number of bytes read from this memory
system.mem_ctrls.bytes_read::l2.prefetcher     35795264                       # Number of bytes read from this memory
system.mem_ctrls.bytes_read::cpu0.inst            256                       # Number of bytes read from this memory
system.mem_ctrls.bytes_read::cpu0.data            192                       # Number of bytes read from this memory
system.mem_ctrls.bytes_read::cpu2.inst             64                       # Number of bytes read from this memory
system.mem_ctrls.bytes_read::cpu2.data             64                       # Number of bytes read from this memory
system.mem_ctrls.bytes_read::total           62143040                       # Number of bytes read from this memory
system.mem_ctrls.bytes_inst_read::switch_cpus0.inst       207168                       # Number of instructions bytes read from this memory
system.mem_ctrls.bytes_inst_read::switch_cpus1.inst       118336                       # Number of instructions bytes read from this memory
system.mem_ctrls.bytes_inst_read::switch_cpus2.inst       733504                       # Number of instructions bytes read from this memory
system.mem_ctrls.bytes_inst_read::switch_cpus3.inst      1536128                       # Number of instructions bytes read from this memory
system.mem_ctrls.bytes_inst_read::cpu0.inst          256                       # Number of instructions bytes read from this memory
system.mem_ctrls.bytes_inst_read::cpu2.inst           64                       # Number of instructions bytes read from this memory
system.mem_ctrls.bytes_inst_read::total       2595456                       # Number of instructions bytes read from this memory
system.mem_ctrls.bytes_written::writebacks     26197056                       # Number of bytes written to this memory
system.mem_ctrls.bytes_written::total        26197056                       # Number of bytes written to this memory
system.mem_ctrls.num_reads::switch_cpus0.dtb.walker         1602                       # Number of read requests responded to by this memory
system.mem_ctrls.num_reads::switch_cpus0.itb.walker           96                       # Number of read requests responded to by this memory
system.mem_ctrls.num_reads::switch_cpus0.inst         3237                       # Number of read requests responded to by this memory
system.mem_ctrls.num_reads::switch_cpus0.data        68902                       # Number of read requests responded to by this memory
system.mem_ctrls.num_reads::switch_cpus1.dtb.walker         1910                       # Number of read requests responded to by this memory
system.mem_ctrls.num_reads::switch_cpus1.itb.walker           71                       # Number of read requests responded to by this memory
system.mem_ctrls.num_reads::switch_cpus1.inst         1849                       # Number of read requests responded to by this memory
system.mem_ctrls.num_reads::switch_cpus1.data       104620                       # Number of read requests responded to by this memory
system.mem_ctrls.num_reads::switch_cpus2.dtb.walker          917                       # Number of read requests responded to by this memory
system.mem_ctrls.num_reads::switch_cpus2.itb.walker          207                       # Number of read requests responded to by this memory
system.mem_ctrls.num_reads::switch_cpus2.inst        11461                       # Number of read requests responded to by this memory
system.mem_ctrls.num_reads::switch_cpus2.data        54204                       # Number of read requests responded to by this memory
system.mem_ctrls.num_reads::switch_cpus3.dtb.walker         1209                       # Number of read requests responded to by this memory
system.mem_ctrls.num_reads::switch_cpus3.itb.walker          390                       # Number of read requests responded to by this memory
system.mem_ctrls.num_reads::switch_cpus3.inst        24002                       # Number of read requests responded to by this memory
system.mem_ctrls.num_reads::switch_cpus3.data       136998                       # Number of read requests responded to by this memory
system.mem_ctrls.num_reads::l2.prefetcher       559301                       # Number of read requests responded to by this memory
system.mem_ctrls.num_reads::cpu0.inst               4                       # Number of read requests responded to by this memory
system.mem_ctrls.num_reads::cpu0.data               3                       # Number of read requests responded to by this memory
system.mem_ctrls.num_reads::cpu2.inst               1                       # Number of read requests responded to by this memory
system.mem_ctrls.num_reads::cpu2.data               1                       # Number of read requests responded to by this memory
system.mem_ctrls.num_reads::total              970985                       # Number of read requests responded to by this memory
system.mem_ctrls.num_writes::writebacks        409329                       # Number of write requests responded to by this memory
system.mem_ctrls.num_writes::total             409329                       # Number of write requests responded to by this memory
system.mem_ctrls.bw_read::switch_cpus0.dtb.walker       413223                       # Total read bandwidth from this memory (bytes/s)
system.mem_ctrls.bw_read::switch_cpus0.itb.walker        24762                       # Total read bandwidth from this memory (bytes/s)
system.mem_ctrls.bw_read::switch_cpus0.inst       834958                       # Total read bandwidth from this memory (bytes/s)
system.mem_ctrls.bw_read::switch_cpus0.data     17772722                       # Total read bandwidth from this memory (bytes/s)
system.mem_ctrls.bw_read::switch_cpus1.dtb.walker       492669                       # Total read bandwidth from this memory (bytes/s)
system.mem_ctrls.bw_read::switch_cpus1.itb.walker        18314                       # Total read bandwidth from this memory (bytes/s)
system.mem_ctrls.bw_read::switch_cpus1.inst       476935                       # Total read bandwidth from this memory (bytes/s)
system.mem_ctrls.bw_read::switch_cpus1.data     26985895                       # Total read bandwidth from this memory (bytes/s)
system.mem_ctrls.bw_read::switch_cpus2.dtb.walker       236533                       # Total read bandwidth from this memory (bytes/s)
system.mem_ctrls.bw_read::switch_cpus2.itb.walker        53394                       # Total read bandwidth from this memory (bytes/s)
system.mem_ctrls.bw_read::switch_cpus2.inst      2956274                       # Total read bandwidth from this memory (bytes/s)
system.mem_ctrls.bw_read::switch_cpus2.data     13981490                       # Total read bandwidth from this memory (bytes/s)
system.mem_ctrls.bw_read::switch_cpus3.dtb.walker       311852                       # Total read bandwidth from this memory (bytes/s)
system.mem_ctrls.bw_read::switch_cpus3.itb.walker       100597                       # Total read bandwidth from this memory (bytes/s)
system.mem_ctrls.bw_read::switch_cpus3.inst      6191125                       # Total read bandwidth from this memory (bytes/s)
system.mem_ctrls.bw_read::switch_cpus3.data     35337542                       # Total read bandwidth from this memory (bytes/s)
system.mem_ctrls.bw_read::l2.prefetcher     144267235                       # Total read bandwidth from this memory (bytes/s)
system.mem_ctrls.bw_read::cpu0.inst              1032                       # Total read bandwidth from this memory (bytes/s)
system.mem_ctrls.bw_read::cpu0.data               774                       # Total read bandwidth from this memory (bytes/s)
system.mem_ctrls.bw_read::cpu2.inst               258                       # Total read bandwidth from this memory (bytes/s)
system.mem_ctrls.bw_read::cpu2.data               258                       # Total read bandwidth from this memory (bytes/s)
system.mem_ctrls.bw_read::total             250457842                       # Total read bandwidth from this memory (bytes/s)
system.mem_ctrls.bw_inst_read::switch_cpus0.inst       834958                       # Instruction read bandwidth from this memory (bytes/s)
system.mem_ctrls.bw_inst_read::switch_cpus1.inst       476935                       # Instruction read bandwidth from this memory (bytes/s)
system.mem_ctrls.bw_inst_read::switch_cpus2.inst      2956274                       # Instruction read bandwidth from this memory (bytes/s)
system.mem_ctrls.bw_inst_read::switch_cpus3.inst      6191125                       # Instruction read bandwidth from this memory (bytes/s)
system.mem_ctrls.bw_inst_read::cpu0.inst         1032                       # Instruction read bandwidth from this memory (bytes/s)
system.mem_ctrls.bw_inst_read::cpu2.inst          258                       # Instruction read bandwidth from this memory (bytes/s)
system.mem_ctrls.bw_inst_read::total         10460581                       # Instruction read bandwidth from this memory (bytes/s)
system.mem_ctrls.bw_write::writebacks       105583153                       # Write bandwidth from this memory (bytes/s)
system.mem_ctrls.bw_write::total            105583153                       # Write bandwidth from this memory (bytes/s)
system.mem_ctrls.bw_total::writebacks       105583153                       # Total bandwidth to/from this memory (bytes/s)
system.mem_ctrls.bw_total::switch_cpus0.dtb.walker       413223                       # Total bandwidth to/from this memory (bytes/s)
system.mem_ctrls.bw_total::switch_cpus0.itb.walker        24762                       # Total bandwidth to/from this memory (bytes/s)
system.mem_ctrls.bw_total::switch_cpus0.inst       834958                       # Total bandwidth to/from this memory (bytes/s)
system.mem_ctrls.bw_total::switch_cpus0.data     17772722                       # Total bandwidth to/from this memory (bytes/s)
system.mem_ctrls.bw_total::switch_cpus1.dtb.walker       492669                       # Total bandwidth to/from this memory (bytes/s)
system.mem_ctrls.bw_total::switch_cpus1.itb.walker        18314                       # Total bandwidth to/from this memory (bytes/s)
system.mem_ctrls.bw_total::switch_cpus1.inst       476935                       # Total bandwidth to/from this memory (bytes/s)
system.mem_ctrls.bw_total::switch_cpus1.data     26985895                       # Total bandwidth to/from this memory (bytes/s)
system.mem_ctrls.bw_total::switch_cpus2.dtb.walker       236533                       # Total bandwidth to/from this memory (bytes/s)
system.mem_ctrls.bw_total::switch_cpus2.itb.walker        53394                       # Total bandwidth to/from this memory (bytes/s)
system.mem_ctrls.bw_total::switch_cpus2.inst      2956274                       # Total bandwidth to/from this memory (bytes/s)
system.mem_ctrls.bw_total::switch_cpus2.data     13981490                       # Total bandwidth to/from this memory (bytes/s)
system.mem_ctrls.bw_total::switch_cpus3.dtb.walker       311852                       # Total bandwidth to/from this memory (bytes/s)
system.mem_ctrls.bw_total::switch_cpus3.itb.walker       100597                       # Total bandwidth to/from this memory (bytes/s)
system.mem_ctrls.bw_total::switch_cpus3.inst      6191125                       # Total bandwidth to/from this memory (bytes/s)
system.mem_ctrls.bw_total::switch_cpus3.data     35337542                       # Total bandwidth to/from this memory (bytes/s)
system.mem_ctrls.bw_total::l2.prefetcher    144267235                       # Total bandwidth to/from this memory (bytes/s)
system.mem_ctrls.bw_total::cpu0.inst             1032                       # Total bandwidth to/from this memory (bytes/s)
system.mem_ctrls.bw_total::cpu0.data              774                       # Total bandwidth to/from this memory (bytes/s)
system.mem_ctrls.bw_total::cpu2.inst              258                       # Total bandwidth to/from this memory (bytes/s)
system.mem_ctrls.bw_total::cpu2.data              258                       # Total bandwidth to/from this memory (bytes/s)
system.mem_ctrls.bw_total::total            356040995                       # Total bandwidth to/from this memory (bytes/s)
system.mem_ctrls.readReqs                      970976                       # Number of read requests accepted
system.mem_ctrls.writeReqs                     409329                       # Number of write requests accepted
system.mem_ctrls.readBursts                    970976                       # Number of DRAM read bursts, including those serviced by the write queue
system.mem_ctrls.writeBursts                   409329                       # Number of DRAM write bursts, including those merged in the write queue
system.mem_ctrls.bytesReadDRAM               61940224                       # Total number of bytes read from DRAM
system.mem_ctrls.bytesReadWrQ                  202240                       # Total number of bytes read from write queue
system.mem_ctrls.bytesWritten                26195776                       # Total number of bytes written to DRAM
system.mem_ctrls.bytesReadSys                62142464                       # Total read bytes from the system interface side
system.mem_ctrls.bytesWrittenSys             26197056                       # Total written bytes from the system interface side
system.mem_ctrls.servicedByWrQ                   3160                       # Number of DRAM read bursts serviced by the write queue
system.mem_ctrls.mergedWrBursts                     5                       # Number of DRAM write bursts merged with an existing one
system.mem_ctrls.neitherReadNorWriteReqs        65027                       # Number of requests that are neither read nor write
system.mem_ctrls.perBankRdBursts::0             51722                       # Per bank write bursts
system.mem_ctrls.perBankRdBursts::1             50391                       # Per bank write bursts
system.mem_ctrls.perBankRdBursts::2             66770                       # Per bank write bursts
system.mem_ctrls.perBankRdBursts::3             67276                       # Per bank write bursts
system.mem_ctrls.perBankRdBursts::4             68449                       # Per bank write bursts
system.mem_ctrls.perBankRdBursts::5             60042                       # Per bank write bursts
system.mem_ctrls.perBankRdBursts::6             71826                       # Per bank write bursts
system.mem_ctrls.perBankRdBursts::7             70021                       # Per bank write bursts
system.mem_ctrls.perBankRdBursts::8             62244                       # Per bank write bursts
system.mem_ctrls.perBankRdBursts::9             70654                       # Per bank write bursts
system.mem_ctrls.perBankRdBursts::10            59234                       # Per bank write bursts
system.mem_ctrls.perBankRdBursts::11            57853                       # Per bank write bursts
system.mem_ctrls.perBankRdBursts::12            55647                       # Per bank write bursts
system.mem_ctrls.perBankRdBursts::13            43465                       # Per bank write bursts
system.mem_ctrls.perBankRdBursts::14            53116                       # Per bank write bursts
system.mem_ctrls.perBankRdBursts::15            59106                       # Per bank write bursts
system.mem_ctrls.perBankWrBursts::0             24004                       # Per bank write bursts
system.mem_ctrls.perBankWrBursts::1             22349                       # Per bank write bursts
system.mem_ctrls.perBankWrBursts::2             28333                       # Per bank write bursts
system.mem_ctrls.perBankWrBursts::3             28304                       # Per bank write bursts
system.mem_ctrls.perBankWrBursts::4             29645                       # Per bank write bursts
system.mem_ctrls.perBankWrBursts::5             25582                       # Per bank write bursts
system.mem_ctrls.perBankWrBursts::6             28285                       # Per bank write bursts
system.mem_ctrls.perBankWrBursts::7             29177                       # Per bank write bursts
system.mem_ctrls.perBankWrBursts::8             25025                       # Per bank write bursts
system.mem_ctrls.perBankWrBursts::9             26541                       # Per bank write bursts
system.mem_ctrls.perBankWrBursts::10            24941                       # Per bank write bursts
system.mem_ctrls.perBankWrBursts::11            22021                       # Per bank write bursts
system.mem_ctrls.perBankWrBursts::12            24519                       # Per bank write bursts
system.mem_ctrls.perBankWrBursts::13            21789                       # Per bank write bursts
system.mem_ctrls.perBankWrBursts::14            24343                       # Per bank write bursts
system.mem_ctrls.perBankWrBursts::15            24451                       # Per bank write bursts
system.mem_ctrls.numRdRetry                         0                       # Number of times read queue was full causing retry
system.mem_ctrls.numWrRetry                         0                       # Number of times write queue was full causing retry
system.mem_ctrls.totGap                  248117031000                       # Total gap between requests
system.mem_ctrls.readPktSize::0                     0                       # Read request sizes (log2)
system.mem_ctrls.readPktSize::1                     0                       # Read request sizes (log2)
system.mem_ctrls.readPktSize::2                     0                       # Read request sizes (log2)
system.mem_ctrls.readPktSize::3                     0                       # Read request sizes (log2)
system.mem_ctrls.readPktSize::4                     0                       # Read request sizes (log2)
system.mem_ctrls.readPktSize::5                     0                       # Read request sizes (log2)
system.mem_ctrls.readPktSize::6                970976                       # Read request sizes (log2)
system.mem_ctrls.writePktSize::0                    0                       # Write request sizes (log2)
system.mem_ctrls.writePktSize::1                    0                       # Write request sizes (log2)
system.mem_ctrls.writePktSize::2                    0                       # Write request sizes (log2)
system.mem_ctrls.writePktSize::3                    0                       # Write request sizes (log2)
system.mem_ctrls.writePktSize::4                    0                       # Write request sizes (log2)
system.mem_ctrls.writePktSize::5                    0                       # Write request sizes (log2)
system.mem_ctrls.writePktSize::6               409329                       # Write request sizes (log2)
system.mem_ctrls.rdQLenPdf::0                  363454                       # What read queue length does an incoming req see
system.mem_ctrls.rdQLenPdf::1                  197944                       # What read queue length does an incoming req see
system.mem_ctrls.rdQLenPdf::2                  103780                       # What read queue length does an incoming req see
system.mem_ctrls.rdQLenPdf::3                   70247                       # What read queue length does an incoming req see
system.mem_ctrls.rdQLenPdf::4                   52611                       # What read queue length does an incoming req see
system.mem_ctrls.rdQLenPdf::5                   39543                       # What read queue length does an incoming req see
system.mem_ctrls.rdQLenPdf::6                   32892                       # What read queue length does an incoming req see
system.mem_ctrls.rdQLenPdf::7                   28126                       # What read queue length does an incoming req see
system.mem_ctrls.rdQLenPdf::8                   23657                       # What read queue length does an incoming req see
system.mem_ctrls.rdQLenPdf::9                   16512                       # What read queue length does an incoming req see
system.mem_ctrls.rdQLenPdf::10                  11996                       # What read queue length does an incoming req see
system.mem_ctrls.rdQLenPdf::11                   9860                       # What read queue length does an incoming req see
system.mem_ctrls.rdQLenPdf::12                   6324                       # What read queue length does an incoming req see
system.mem_ctrls.rdQLenPdf::13                   4664                       # What read queue length does an incoming req see
system.mem_ctrls.rdQLenPdf::14                   3543                       # What read queue length does an incoming req see
system.mem_ctrls.rdQLenPdf::15                   2663                       # What read queue length does an incoming req see
system.mem_ctrls.rdQLenPdf::16                      0                       # What read queue length does an incoming req see
system.mem_ctrls.rdQLenPdf::17                      0                       # What read queue length does an incoming req see
system.mem_ctrls.rdQLenPdf::18                      0                       # What read queue length does an incoming req see
system.mem_ctrls.rdQLenPdf::19                      0                       # What read queue length does an incoming req see
system.mem_ctrls.rdQLenPdf::20                      0                       # What read queue length does an incoming req see
system.mem_ctrls.rdQLenPdf::21                      0                       # What read queue length does an incoming req see
system.mem_ctrls.rdQLenPdf::22                      0                       # What read queue length does an incoming req see
system.mem_ctrls.rdQLenPdf::23                      0                       # What read queue length does an incoming req see
system.mem_ctrls.rdQLenPdf::24                      0                       # What read queue length does an incoming req see
system.mem_ctrls.rdQLenPdf::25                      0                       # What read queue length does an incoming req see
system.mem_ctrls.rdQLenPdf::26                      0                       # What read queue length does an incoming req see
system.mem_ctrls.rdQLenPdf::27                      0                       # What read queue length does an incoming req see
system.mem_ctrls.rdQLenPdf::28                      0                       # What read queue length does an incoming req see
system.mem_ctrls.rdQLenPdf::29                      0                       # What read queue length does an incoming req see
system.mem_ctrls.rdQLenPdf::30                      0                       # What read queue length does an incoming req see
system.mem_ctrls.rdQLenPdf::31                      0                       # What read queue length does an incoming req see
system.mem_ctrls.wrQLenPdf::0                       1                       # What write queue length does an incoming req see
system.mem_ctrls.wrQLenPdf::1                       1                       # What write queue length does an incoming req see
system.mem_ctrls.wrQLenPdf::2                       1                       # What write queue length does an incoming req see
system.mem_ctrls.wrQLenPdf::3                       1                       # What write queue length does an incoming req see
system.mem_ctrls.wrQLenPdf::4                       1                       # What write queue length does an incoming req see
system.mem_ctrls.wrQLenPdf::5                       1                       # What write queue length does an incoming req see
system.mem_ctrls.wrQLenPdf::6                       1                       # What write queue length does an incoming req see
system.mem_ctrls.wrQLenPdf::7                       1                       # What write queue length does an incoming req see
system.mem_ctrls.wrQLenPdf::8                       1                       # What write queue length does an incoming req see
system.mem_ctrls.wrQLenPdf::9                       1                       # What write queue length does an incoming req see
system.mem_ctrls.wrQLenPdf::10                      1                       # What write queue length does an incoming req see
system.mem_ctrls.wrQLenPdf::11                      1                       # What write queue length does an incoming req see
system.mem_ctrls.wrQLenPdf::12                      1                       # What write queue length does an incoming req see
system.mem_ctrls.wrQLenPdf::13                      1                       # What write queue length does an incoming req see
system.mem_ctrls.wrQLenPdf::14                      1                       # What write queue length does an incoming req see
system.mem_ctrls.wrQLenPdf::15                   7100                       # What write queue length does an incoming req see
system.mem_ctrls.wrQLenPdf::16                   7490                       # What write queue length does an incoming req see
system.mem_ctrls.wrQLenPdf::17                  12627                       # What write queue length does an incoming req see
system.mem_ctrls.wrQLenPdf::18                  15955                       # What write queue length does an incoming req see
system.mem_ctrls.wrQLenPdf::19                  18289                       # What write queue length does an incoming req see
system.mem_ctrls.wrQLenPdf::20                  19944                       # What write queue length does an incoming req see
system.mem_ctrls.wrQLenPdf::21                  21287                       # What write queue length does an incoming req see
system.mem_ctrls.wrQLenPdf::22                  22568                       # What write queue length does an incoming req see
system.mem_ctrls.wrQLenPdf::23                  23841                       # What write queue length does an incoming req see
system.mem_ctrls.wrQLenPdf::24                  25137                       # What write queue length does an incoming req see
system.mem_ctrls.wrQLenPdf::25                  26663                       # What write queue length does an incoming req see
system.mem_ctrls.wrQLenPdf::26                  27816                       # What write queue length does an incoming req see
system.mem_ctrls.wrQLenPdf::27                  28858                       # What write queue length does an incoming req see
system.mem_ctrls.wrQLenPdf::28                  30891                       # What write queue length does an incoming req see
system.mem_ctrls.wrQLenPdf::29                  28424                       # What write queue length does an incoming req see
system.mem_ctrls.wrQLenPdf::30                  27348                       # What write queue length does an incoming req see
system.mem_ctrls.wrQLenPdf::31                  26632                       # What write queue length does an incoming req see
system.mem_ctrls.wrQLenPdf::32                  25289                       # What write queue length does an incoming req see
system.mem_ctrls.wrQLenPdf::33                   1920                       # What write queue length does an incoming req see
system.mem_ctrls.wrQLenPdf::34                   1359                       # What write queue length does an incoming req see
system.mem_ctrls.wrQLenPdf::35                   1024                       # What write queue length does an incoming req see
system.mem_ctrls.wrQLenPdf::36                    890                       # What write queue length does an incoming req see
system.mem_ctrls.wrQLenPdf::37                    742                       # What write queue length does an incoming req see
system.mem_ctrls.wrQLenPdf::38                    647                       # What write queue length does an incoming req see
system.mem_ctrls.wrQLenPdf::39                    605                       # What write queue length does an incoming req see
system.mem_ctrls.wrQLenPdf::40                    570                       # What write queue length does an incoming req see
system.mem_ctrls.wrQLenPdf::41                    530                       # What write queue length does an incoming req see
system.mem_ctrls.wrQLenPdf::42                    496                       # What write queue length does an incoming req see
system.mem_ctrls.wrQLenPdf::43                    471                       # What write queue length does an incoming req see
system.mem_ctrls.wrQLenPdf::44                    421                       # What write queue length does an incoming req see
system.mem_ctrls.wrQLenPdf::45                    425                       # What write queue length does an incoming req see
system.mem_ctrls.wrQLenPdf::46                    395                       # What write queue length does an incoming req see
system.mem_ctrls.wrQLenPdf::47                    384                       # What write queue length does an incoming req see
system.mem_ctrls.wrQLenPdf::48                    386                       # What write queue length does an incoming req see
system.mem_ctrls.wrQLenPdf::49                    361                       # What write queue length does an incoming req see
system.mem_ctrls.wrQLenPdf::50                    334                       # What write queue length does an incoming req see
system.mem_ctrls.wrQLenPdf::51                    323                       # What write queue length does an incoming req see
system.mem_ctrls.wrQLenPdf::52                    286                       # What write queue length does an incoming req see
system.mem_ctrls.wrQLenPdf::53                    226                       # What write queue length does an incoming req see
system.mem_ctrls.wrQLenPdf::54                    244                       # What write queue length does an incoming req see
system.mem_ctrls.wrQLenPdf::55                     64                       # What write queue length does an incoming req see
system.mem_ctrls.wrQLenPdf::56                     26                       # What write queue length does an incoming req see
system.mem_ctrls.wrQLenPdf::57                     13                       # What write queue length does an incoming req see
system.mem_ctrls.wrQLenPdf::58                      4                       # What write queue length does an incoming req see
system.mem_ctrls.wrQLenPdf::59                      3                       # What write queue length does an incoming req see
system.mem_ctrls.wrQLenPdf::60                      1                       # What write queue length does an incoming req see
system.mem_ctrls.wrQLenPdf::61                      0                       # What write queue length does an incoming req see
system.mem_ctrls.wrQLenPdf::62                      0                       # What write queue length does an incoming req see
system.mem_ctrls.wrQLenPdf::63                      0                       # What write queue length does an incoming req see
system.mem_ctrls.bytesPerActivate::samples       657954                       # Bytes accessed per row activation
system.mem_ctrls.bytesPerActivate::mean    133.954653                       # Bytes accessed per row activation
system.mem_ctrls.bytesPerActivate::gmean    95.195803                       # Bytes accessed per row activation
system.mem_ctrls.bytesPerActivate::stdev   164.924265                       # Bytes accessed per row activation
system.mem_ctrls.bytesPerActivate::0-127       454470     69.07%     69.07% # Bytes accessed per row activation
system.mem_ctrls.bytesPerActivate::128-255       113545     17.26%     86.33% # Bytes accessed per row activation
system.mem_ctrls.bytesPerActivate::256-383        43503      6.61%     92.94% # Bytes accessed per row activation
system.mem_ctrls.bytesPerActivate::384-511        13417      2.04%     94.98% # Bytes accessed per row activation
system.mem_ctrls.bytesPerActivate::512-639        11411      1.73%     96.72% # Bytes accessed per row activation
system.mem_ctrls.bytesPerActivate::640-767         7023      1.07%     97.78% # Bytes accessed per row activation
system.mem_ctrls.bytesPerActivate::768-895         4048      0.62%     98.40% # Bytes accessed per row activation
system.mem_ctrls.bytesPerActivate::896-1023         3271      0.50%     98.90% # Bytes accessed per row activation
system.mem_ctrls.bytesPerActivate::1024-1151         7266      1.10%    100.00% # Bytes accessed per row activation
system.mem_ctrls.bytesPerActivate::total       657954                       # Bytes accessed per row activation
system.mem_ctrls.rdPerTurnAround::samples        24348                       # Reads before turning the bus around for writes
system.mem_ctrls.rdPerTurnAround::mean      39.749302                       # Reads before turning the bus around for writes
system.mem_ctrls.rdPerTurnAround::gmean     35.886648                       # Reads before turning the bus around for writes
system.mem_ctrls.rdPerTurnAround::stdev     81.530400                       # Reads before turning the bus around for writes
system.mem_ctrls.rdPerTurnAround::0-511         24344     99.98%     99.98% # Reads before turning the bus around for writes
system.mem_ctrls.rdPerTurnAround::512-1023            3      0.01%    100.00% # Reads before turning the bus around for writes
system.mem_ctrls.rdPerTurnAround::12288-12799            1      0.00%    100.00% # Reads before turning the bus around for writes
system.mem_ctrls.rdPerTurnAround::total         24348                       # Reads before turning the bus around for writes
system.mem_ctrls.wrPerTurnAround::samples        24348                       # Writes before turning the bus around for reads
system.mem_ctrls.wrPerTurnAround::mean      16.810785                       # Writes before turning the bus around for reads
system.mem_ctrls.wrPerTurnAround::gmean     16.760485                       # Writes before turning the bus around for reads
system.mem_ctrls.wrPerTurnAround::stdev      1.367666                       # Writes before turning the bus around for reads
system.mem_ctrls.wrPerTurnAround::16            16472     67.65%     67.65% # Writes before turning the bus around for reads
system.mem_ctrls.wrPerTurnAround::17              410      1.68%     69.34% # Writes before turning the bus around for reads
system.mem_ctrls.wrPerTurnAround::18             5123     21.04%     90.38% # Writes before turning the bus around for reads
system.mem_ctrls.wrPerTurnAround::19             1371      5.63%     96.01% # Writes before turning the bus around for reads
system.mem_ctrls.wrPerTurnAround::20              495      2.03%     98.04% # Writes before turning the bus around for reads
system.mem_ctrls.wrPerTurnAround::21              233      0.96%     99.00% # Writes before turning the bus around for reads
system.mem_ctrls.wrPerTurnAround::22              109      0.45%     99.45% # Writes before turning the bus around for reads
system.mem_ctrls.wrPerTurnAround::23               42      0.17%     99.62% # Writes before turning the bus around for reads
system.mem_ctrls.wrPerTurnAround::24               36      0.15%     99.77% # Writes before turning the bus around for reads
system.mem_ctrls.wrPerTurnAround::25               24      0.10%     99.86% # Writes before turning the bus around for reads
system.mem_ctrls.wrPerTurnAround::26               11      0.05%     99.91% # Writes before turning the bus around for reads
system.mem_ctrls.wrPerTurnAround::27                9      0.04%     99.95% # Writes before turning the bus around for reads
system.mem_ctrls.wrPerTurnAround::28                7      0.03%     99.98% # Writes before turning the bus around for reads
system.mem_ctrls.wrPerTurnAround::29                5      0.02%    100.00% # Writes before turning the bus around for reads
system.mem_ctrls.wrPerTurnAround::33                1      0.00%    100.00% # Writes before turning the bus around for reads
system.mem_ctrls.wrPerTurnAround::total         24348                       # Writes before turning the bus around for reads
system.mem_ctrls.totQLat                  36979655704                       # Total ticks spent queuing
system.mem_ctrls.totMemAccLat             55126205704                       # Total ticks spent from burst creation until serviced by the DRAM
system.mem_ctrls.totBusLat                 4839080000                       # Total ticks spent in databus transfers
system.mem_ctrls.avgQLat                     38209.39                       # Average queueing delay per DRAM burst
system.mem_ctrls.avgBusLat                    5000.00                       # Average bus latency per DRAM burst
system.mem_ctrls.avgMemAccLat                56959.39                       # Average memory access latency per DRAM burst
system.mem_ctrls.avgRdBW                       249.64                       # Average DRAM read bandwidth in MiByte/s
system.mem_ctrls.avgWrBW                       105.58                       # Average achieved write bandwidth in MiByte/s
system.mem_ctrls.avgRdBWSys                    250.46                       # Average system read bandwidth in MiByte/s
system.mem_ctrls.avgWrBWSys                    105.58                       # Average system write bandwidth in MiByte/s
system.mem_ctrls.peakBW                      12800.00                       # Theoretical peak bandwidth in MiByte/s
system.mem_ctrls.busUtil                         2.78                       # Data bus utilization in percentage
system.mem_ctrls.busUtilRead                     1.95                       # Data bus utilization in percentage for reads
system.mem_ctrls.busUtilWrite                    0.82                       # Data bus utilization in percentage for writes
system.mem_ctrls.avgRdQLen                       1.83                       # Average read queue length when enqueuing
system.mem_ctrls.avgWrQLen                      24.92                       # Average write queue length when enqueuing
system.mem_ctrls.readRowHits                   653284                       # Number of row buffer hits during reads
system.mem_ctrls.writeRowHits                   65887                       # Number of row buffer hits during writes
system.mem_ctrls.readRowHitRate                 67.50                       # Row buffer hit rate for reads
system.mem_ctrls.writeRowHitRate                16.10                       # Row buffer hit rate for writes
system.mem_ctrls.avgGap                     179755.22                       # Average gap between requests
system.mem_ctrls.pageHitRate                    52.22                       # Row buffer hit rate, read and write combined
system.mem_ctrls.memoryStateTime::IDLE    60347007964                       # Time in different power states
system.mem_ctrls.memoryStateTime::REF      8285160000                       # Time in different power states
system.mem_ctrls.memoryStateTime::PRE_PDN            0                       # Time in different power states
system.mem_ctrls.memoryStateTime::ACT    179484748286                       # Time in different power states
system.mem_ctrls.memoryStateTime::ACT_PDN            0                       # Time in different power states
system.mem_ctrls.actEnergy::0              2590411320                       # Energy for activate commands per rank (pJ)
system.mem_ctrls.actEnergy::1              2383720920                       # Energy for activate commands per rank (pJ)
system.mem_ctrls.preEnergy::0              1413418875                       # Energy for precharge commands per rank (pJ)
system.mem_ctrls.preEnergy::1              1300641375                       # Energy for precharge commands per rank (pJ)
system.mem_ctrls.readEnergy::0             3950676600                       # Energy for read commands per rank (pJ)
system.mem_ctrls.readEnergy::1             3598288200                       # Energy for read commands per rank (pJ)
system.mem_ctrls.writeEnergy::0            1397599920                       # Energy for write commands per rank (pJ)
system.mem_ctrls.writeEnergy::1            1254722400                       # Energy for write commands per rank (pJ)
system.mem_ctrls.refreshEnergy::0         16205772960                       # Energy for refresh commands per rank (pJ)
system.mem_ctrls.refreshEnergy::1         16205772960                       # Energy for refresh commands per rank (pJ)
system.mem_ctrls.actBackEnergy::0        107469783315                       # Energy for active background per rank (pJ)
system.mem_ctrls.actBackEnergy::1        103962833235                       # Energy for active background per rank (pJ)
system.mem_ctrls.preBackEnergy::0         54598401750                       # Energy for precharge background per rank (pJ)
system.mem_ctrls.preBackEnergy::1         57674673750                       # Energy for precharge background per rank (pJ)
system.mem_ctrls.totalEnergy::0          187626064740                       # Total energy per rank (pJ)
system.mem_ctrls.totalEnergy::1          186380652840                       # Total energy per rank (pJ)
system.mem_ctrls.averagePower::0           756.200254                       # Core power per rank (mW)
system.mem_ctrls.averagePower::1           751.180798                       # Core power per rank (mW)
system.cpu_voltage_domain.voltage                   1                       # Voltage in Volts
system.cpu_clk_domain.clock                       500                       # Clock period in ticks
system.tol2bus.trans_dist::ReadReq            6304449                       # Transaction distribution
system.tol2bus.trans_dist::ReadResp           6304448                       # Transaction distribution
system.tol2bus.trans_dist::WriteReq               729                       # Transaction distribution
system.tol2bus.trans_dist::WriteResp              729                       # Transaction distribution
system.tol2bus.trans_dist::Writeback          2023175                       # Transaction distribution
system.tol2bus.trans_dist::HardPFReq          1218725                       # Transaction distribution
system.tol2bus.trans_dist::HardPFResp               4                       # Transaction distribution
system.tol2bus.trans_dist::UpgradeReq           59703                       # Transaction distribution
system.tol2bus.trans_dist::SCUpgradeReq         10881                       # Transaction distribution
system.tol2bus.trans_dist::UpgradeResp          70584                       # Transaction distribution
system.tol2bus.trans_dist::SCUpgradeFailReq            2                       # Transaction distribution
system.tol2bus.trans_dist::UpgradeFailResp            2                       # Transaction distribution
system.tol2bus.trans_dist::ReadExReq          1208171                       # Transaction distribution
system.tol2bus.trans_dist::ReadExResp         1208171                       # Transaction distribution
system.tol2bus.pkt_count_system.cpu0.icache.mem_side::system.l2.cpu_side       115610                       # Packet count per connected master and slave (bytes)
system.tol2bus.pkt_count_system.cpu0.dcache.mem_side::system.l2.cpu_side       402375                       # Packet count per connected master and slave (bytes)
system.tol2bus.pkt_count_system.cpu0.itb.walker.dma::system.l2.cpu_side         4301                       # Packet count per connected master and slave (bytes)
system.tol2bus.pkt_count_system.cpu0.dtb.walker.dma::system.l2.cpu_side       122232                       # Packet count per connected master and slave (bytes)
system.tol2bus.pkt_count_system.cpu1.icache.mem_side::system.l2.cpu_side        93262                       # Packet count per connected master and slave (bytes)
system.tol2bus.pkt_count_system.cpu1.dcache.mem_side::system.l2.cpu_side       638870                       # Packet count per connected master and slave (bytes)
system.tol2bus.pkt_count_system.cpu1.itb.walker.dma::system.l2.cpu_side         5232                       # Packet count per connected master and slave (bytes)
system.tol2bus.pkt_count_system.cpu1.dtb.walker.dma::system.l2.cpu_side       144689                       # Packet count per connected master and slave (bytes)
system.tol2bus.pkt_count_system.cpu2.icache.mem_side::system.l2.cpu_side       828809                       # Packet count per connected master and slave (bytes)
system.tol2bus.pkt_count_system.cpu2.dcache.mem_side::system.l2.cpu_side      1001094                       # Packet count per connected master and slave (bytes)
system.tol2bus.pkt_count_system.cpu2.itb.walker.dma::system.l2.cpu_side        29829                       # Packet count per connected master and slave (bytes)
system.tol2bus.pkt_count_system.cpu2.dtb.walker.dma::system.l2.cpu_side       129029                       # Packet count per connected master and slave (bytes)
system.tol2bus.pkt_count_system.cpu3.icache.mem_side::system.l2.cpu_side      5700193                       # Packet count per connected master and slave (bytes)
system.tol2bus.pkt_count_system.cpu3.dcache.mem_side::system.l2.cpu_side      6600960                       # Packet count per connected master and slave (bytes)
system.tol2bus.pkt_count_system.cpu3.itb.walker.dma::system.l2.cpu_side       226100                       # Packet count per connected master and slave (bytes)
system.tol2bus.pkt_count_system.cpu3.dtb.walker.dma::system.l2.cpu_side       682045                       # Packet count per connected master and slave (bytes)
system.tol2bus.pkt_count::total              16724630                       # Packet count per connected master and slave (bytes)
system.tol2bus.pkt_size_system.cpu0.icache.mem_side::system.l2.cpu_side      3699456                       # Cumulative packet size per connected master and slave (bytes)
system.tol2bus.pkt_size_system.cpu0.dcache.mem_side::system.l2.cpu_side     15601570                       # Cumulative packet size per connected master and slave (bytes)
system.tol2bus.pkt_size_system.cpu0.itb.walker.dma::system.l2.cpu_side         6184                       # Cumulative packet size per connected master and slave (bytes)
system.tol2bus.pkt_size_system.cpu0.dtb.walker.dma::system.l2.cpu_side       238008                       # Cumulative packet size per connected master and slave (bytes)
system.tol2bus.pkt_size_system.cpu1.icache.mem_side::system.l2.cpu_side      2984384                       # Cumulative packet size per connected master and slave (bytes)
system.tol2bus.pkt_size_system.cpu1.dcache.mem_side::system.l2.cpu_side     24845732                       # Cumulative packet size per connected master and slave (bytes)
system.tol2bus.pkt_size_system.cpu1.itb.walker.dma::system.l2.cpu_side         9604                       # Cumulative packet size per connected master and slave (bytes)
system.tol2bus.pkt_size_system.cpu1.dtb.walker.dma::system.l2.cpu_side       283732                       # Cumulative packet size per connected master and slave (bytes)
system.tol2bus.pkt_size_system.cpu2.icache.mem_side::system.l2.cpu_side     26521856                       # Cumulative packet size per connected master and slave (bytes)
system.tol2bus.pkt_size_system.cpu2.dcache.mem_side::system.l2.cpu_side     37428956                       # Cumulative packet size per connected master and slave (bytes)
system.tol2bus.pkt_size_system.cpu2.itb.walker.dma::system.l2.cpu_side        39796                       # Cumulative packet size per connected master and slave (bytes)
system.tol2bus.pkt_size_system.cpu2.dtb.walker.dma::system.l2.cpu_side       200928                       # Cumulative packet size per connected master and slave (bytes)
system.tol2bus.pkt_size_system.cpu3.icache.mem_side::system.l2.cpu_side    182406144                       # Cumulative packet size per connected master and slave (bytes)
system.tol2bus.pkt_size_system.cpu3.dcache.mem_side::system.l2.cpu_side    257465768                       # Cumulative packet size per connected master and slave (bytes)
system.tol2bus.pkt_size_system.cpu3.itb.walker.dma::system.l2.cpu_side       249792                       # Cumulative packet size per connected master and slave (bytes)
system.tol2bus.pkt_size_system.cpu3.dtb.walker.dma::system.l2.cpu_side       870768                       # Cumulative packet size per connected master and slave (bytes)
system.tol2bus.pkt_size::total              552852678                       # Cumulative packet size per connected master and slave (bytes)
system.tol2bus.snoops                         1685147                       # Total snoops (count)
system.tol2bus.snoop_fanout::samples         10859478                       # Request fanout histogram
system.tol2bus.snoop_fanout::mean           23.112227                       # Request fanout histogram
system.tol2bus.snoop_fanout::stdev           0.315645                       # Request fanout histogram
system.tol2bus.snoop_fanout::underflows             0      0.00%      0.00% # Request fanout histogram
system.tol2bus.snoop_fanout::0                      0      0.00%      0.00% # Request fanout histogram
system.tol2bus.snoop_fanout::1                      0      0.00%      0.00% # Request fanout histogram
system.tol2bus.snoop_fanout::2                      0      0.00%      0.00% # Request fanout histogram
system.tol2bus.snoop_fanout::3                      0      0.00%      0.00% # Request fanout histogram
system.tol2bus.snoop_fanout::4                      0      0.00%      0.00% # Request fanout histogram
system.tol2bus.snoop_fanout::5                      0      0.00%      0.00% # Request fanout histogram
system.tol2bus.snoop_fanout::6                      0      0.00%      0.00% # Request fanout histogram
system.tol2bus.snoop_fanout::7                      0      0.00%      0.00% # Request fanout histogram
system.tol2bus.snoop_fanout::8                      0      0.00%      0.00% # Request fanout histogram
system.tol2bus.snoop_fanout::9                      0      0.00%      0.00% # Request fanout histogram
system.tol2bus.snoop_fanout::10                     0      0.00%      0.00% # Request fanout histogram
system.tol2bus.snoop_fanout::11                     0      0.00%      0.00% # Request fanout histogram
system.tol2bus.snoop_fanout::12                     0      0.00%      0.00% # Request fanout histogram
system.tol2bus.snoop_fanout::13                     0      0.00%      0.00% # Request fanout histogram
system.tol2bus.snoop_fanout::14                     0      0.00%      0.00% # Request fanout histogram
system.tol2bus.snoop_fanout::15                     0      0.00%      0.00% # Request fanout histogram
system.tol2bus.snoop_fanout::16                     0      0.00%      0.00% # Request fanout histogram
system.tol2bus.snoop_fanout::17                     0      0.00%      0.00% # Request fanout histogram
system.tol2bus.snoop_fanout::18                     0      0.00%      0.00% # Request fanout histogram
system.tol2bus.snoop_fanout::19                     0      0.00%      0.00% # Request fanout histogram
system.tol2bus.snoop_fanout::20                     0      0.00%      0.00% # Request fanout histogram
system.tol2bus.snoop_fanout::21                     0      0.00%      0.00% # Request fanout histogram
system.tol2bus.snoop_fanout::22                     0      0.00%      0.00% # Request fanout histogram
system.tol2bus.snoop_fanout::23               9640753     88.78%     88.78% # Request fanout histogram
system.tol2bus.snoop_fanout::24               1218725     11.22%    100.00% # Request fanout histogram
system.tol2bus.snoop_fanout::overflows              0      0.00%    100.00% # Request fanout histogram
system.tol2bus.snoop_fanout::min_value             23                       # Request fanout histogram
system.tol2bus.snoop_fanout::max_value             24                       # Request fanout histogram
system.tol2bus.snoop_fanout::total           10859478                       # Request fanout histogram
system.tol2bus.reqLayer0.occupancy         6867898640                       # Layer occupancy (ticks)
system.tol2bus.reqLayer0.utilization              2.8                       # Layer utilization (%)
system.tol2bus.snoopLayer0.occupancy             6000                       # Layer occupancy (ticks)
system.tol2bus.snoopLayer0.utilization            0.0                       # Layer utilization (%)
system.tol2bus.respLayer0.occupancy          87187085                       # Layer occupancy (ticks)
system.tol2bus.respLayer0.utilization             0.0                       # Layer utilization (%)
system.tol2bus.respLayer1.occupancy         238883931                       # Layer occupancy (ticks)
system.tol2bus.respLayer1.utilization             0.1                       # Layer utilization (%)
system.tol2bus.respLayer2.occupancy           2770237                       # Layer occupancy (ticks)
system.tol2bus.respLayer2.utilization             0.0                       # Layer utilization (%)
system.tol2bus.respLayer3.occupancy          63376200                       # Layer occupancy (ticks)
system.tol2bus.respLayer3.utilization             0.0                       # Layer utilization (%)
system.tol2bus.respLayer6.occupancy          70270119                       # Layer occupancy (ticks)
system.tol2bus.respLayer6.utilization             0.0                       # Layer utilization (%)
system.tol2bus.respLayer7.occupancy         379796755                       # Layer occupancy (ticks)
system.tol2bus.respLayer7.utilization             0.2                       # Layer utilization (%)
system.tol2bus.respLayer8.occupancy           2844993                       # Layer occupancy (ticks)
system.tol2bus.respLayer8.utilization             0.0                       # Layer utilization (%)
system.tol2bus.respLayer9.occupancy          74627787                       # Layer occupancy (ticks)
system.tol2bus.respLayer9.utilization             0.0                       # Layer utilization (%)
system.tol2bus.respLayer12.occupancy        623813311                       # Layer occupancy (ticks)
system.tol2bus.respLayer12.utilization            0.3                       # Layer utilization (%)
system.tol2bus.respLayer13.occupancy        604262604                       # Layer occupancy (ticks)
system.tol2bus.respLayer13.utilization            0.2                       # Layer utilization (%)
system.tol2bus.respLayer14.occupancy         19928206                       # Layer occupancy (ticks)
system.tol2bus.respLayer14.utilization            0.0                       # Layer utilization (%)
system.tol2bus.respLayer15.occupancy         78985547                       # Layer occupancy (ticks)
system.tol2bus.respLayer15.utilization            0.0                       # Layer utilization (%)
system.tol2bus.respLayer18.occupancy       4280671452                       # Layer occupancy (ticks)
system.tol2bus.respLayer18.utilization            1.7                       # Layer utilization (%)
system.tol2bus.respLayer19.occupancy       3760186136                       # Layer occupancy (ticks)
system.tol2bus.respLayer19.utilization            1.5                       # Layer utilization (%)
system.tol2bus.respLayer20.occupancy        163738141                       # Layer occupancy (ticks)
system.tol2bus.respLayer20.utilization            0.1                       # Layer utilization (%)
system.tol2bus.respLayer21.occupancy        464921292                       # Layer occupancy (ticks)
system.tol2bus.respLayer21.utilization            0.2                       # Layer utilization (%)
system.membus.trans_dist::ReadReq              844504                       # Transaction distribution
system.membus.trans_dist::ReadResp             844504                       # Transaction distribution
system.membus.trans_dist::WriteReq                729                       # Transaction distribution
system.membus.trans_dist::WriteResp               729                       # Transaction distribution
system.membus.trans_dist::Writeback            409329                       # Transaction distribution
system.membus.trans_dist::UpgradeReq            72425                       # Transaction distribution
system.membus.trans_dist::SCUpgradeReq          10316                       # Transaction distribution
system.membus.trans_dist::UpgradeResp           65027                       # Transaction distribution
system.membus.trans_dist::ReadExReq            132657                       # Transaction distribution
system.membus.trans_dist::ReadExResp           130515                       # Transaction distribution
system.membus.pkt_count_system.l2.mem_side::system.bridge.slave         7054                       # Packet count per connected master and slave (bytes)
system.membus.pkt_count_system.l2.mem_side::system.realview.gic.pio         2472                       # Packet count per connected master and slave (bytes)
system.membus.pkt_count_system.l2.mem_side::system.mem_ctrls.port      2501209                       # Packet count per connected master and slave (bytes)
system.membus.pkt_count_system.l2.mem_side::total      2510735                       # Packet count per connected master and slave (bytes)
system.membus.pkt_count::total                2510735                       # Packet count per connected master and slave (bytes)
system.membus.pkt_size_system.l2.mem_side::system.bridge.slave        13946                       # Cumulative packet size per connected master and slave (bytes)
system.membus.pkt_size_system.l2.mem_side::system.realview.gic.pio         4944                       # Cumulative packet size per connected master and slave (bytes)
system.membus.pkt_size_system.l2.mem_side::system.mem_ctrls.port     88340096                       # Cumulative packet size per connected master and slave (bytes)
system.membus.pkt_size_system.l2.mem_side::total     88358986                       # Cumulative packet size per connected master and slave (bytes)
system.membus.pkt_size::total                88358986                       # Cumulative packet size per connected master and slave (bytes)
system.membus.snoops                            19856                       # Total snoops (count)
system.membus.snoop_fanout::samples           1465197                       # Request fanout histogram
system.membus.snoop_fanout::mean                    1                       # Request fanout histogram
system.membus.snoop_fanout::stdev                   0                       # Request fanout histogram
system.membus.snoop_fanout::underflows              0      0.00%      0.00% # Request fanout histogram
system.membus.snoop_fanout::0                       0      0.00%      0.00% # Request fanout histogram
system.membus.snoop_fanout::1                 1465197    100.00%    100.00% # Request fanout histogram
system.membus.snoop_fanout::2                       0      0.00%    100.00% # Request fanout histogram
system.membus.snoop_fanout::overflows               0      0.00%    100.00% # Request fanout histogram
system.membus.snoop_fanout::min_value               1                       # Request fanout histogram
system.membus.snoop_fanout::max_value               1                       # Request fanout histogram
system.membus.snoop_fanout::total             1465197                       # Request fanout histogram
system.membus.reqLayer0.occupancy             4593474                       # Layer occupancy (ticks)
system.membus.reqLayer0.utilization               0.0                       # Layer utilization (%)
system.membus.reqLayer2.occupancy             2151965                       # Layer occupancy (ticks)
system.membus.reqLayer2.utilization               0.0                       # Layer utilization (%)
system.membus.reqLayer5.occupancy          4947484183                       # Layer occupancy (ticks)
system.membus.reqLayer5.utilization               2.0                       # Layer utilization (%)
system.membus.respLayer3.occupancy         9040054065                       # Layer occupancy (ticks)
system.membus.respLayer3.utilization              3.6                       # Layer utilization (%)
system.switch_cpus0.branchPred.lookups      155968472                       # Number of BP lookups
system.switch_cpus0.branchPred.condPredicted    101759739                       # Number of conditional branches predicted
system.switch_cpus0.branchPred.condIncorrect      5757691                       # Number of conditional branches incorrect
system.switch_cpus0.branchPred.BTBLookups     61119564                       # Number of BTB lookups
system.switch_cpus0.branchPred.BTBHits       53323714                       # Number of BTB hits
system.switch_cpus0.branchPred.BTBCorrect            0                       # Number of correct BTB predictions (this stat may not work properly.
system.switch_cpus0.branchPred.BTBHitPct    87.244919                       # BTB Hit Percentage
system.switch_cpus0.branchPred.usedRAS       23787414                       # Number of times the RAS was used to get a target.
system.switch_cpus0.branchPred.RASInCorrect       391650                       # Number of incorrect RAS predictions.
system.switch_cpus0.dstage2_mmu.stage2_tlb.inst_hits            0                       # ITB inst hits
system.switch_cpus0.dstage2_mmu.stage2_tlb.inst_misses            0                       # ITB inst misses
system.switch_cpus0.dstage2_mmu.stage2_tlb.read_hits            0                       # DTB read hits
system.switch_cpus0.dstage2_mmu.stage2_tlb.read_misses            0                       # DTB read misses
system.switch_cpus0.dstage2_mmu.stage2_tlb.write_hits            0                       # DTB write hits
system.switch_cpus0.dstage2_mmu.stage2_tlb.write_misses            0                       # DTB write misses
system.switch_cpus0.dstage2_mmu.stage2_tlb.flush_tlb            0                       # Number of times complete TLB was flushed
system.switch_cpus0.dstage2_mmu.stage2_tlb.flush_tlb_mva            0                       # Number of times TLB was flushed by MVA
system.switch_cpus0.dstage2_mmu.stage2_tlb.flush_tlb_mva_asid            0                       # Number of times TLB was flushed by MVA & ASID
system.switch_cpus0.dstage2_mmu.stage2_tlb.flush_tlb_asid            0                       # Number of times TLB was flushed by ASID
system.switch_cpus0.dstage2_mmu.stage2_tlb.flush_entries            0                       # Number of entries that have been flushed from TLB
system.switch_cpus0.dstage2_mmu.stage2_tlb.align_faults            0                       # Number of TLB faults due to alignment restrictions
system.switch_cpus0.dstage2_mmu.stage2_tlb.prefetch_faults            0                       # Number of TLB faults due to prefetch
system.switch_cpus0.dstage2_mmu.stage2_tlb.domain_faults            0                       # Number of TLB faults due to domain restrictions
system.switch_cpus0.dstage2_mmu.stage2_tlb.perms_faults            0                       # Number of TLB faults due to permissions restrictions
system.switch_cpus0.dstage2_mmu.stage2_tlb.read_accesses            0                       # DTB read accesses
system.switch_cpus0.dstage2_mmu.stage2_tlb.write_accesses            0                       # DTB write accesses
system.switch_cpus0.dstage2_mmu.stage2_tlb.inst_accesses            0                       # ITB inst accesses
system.switch_cpus0.dstage2_mmu.stage2_tlb.hits            0                       # DTB hits
system.switch_cpus0.dstage2_mmu.stage2_tlb.misses            0                       # DTB misses
system.switch_cpus0.dstage2_mmu.stage2_tlb.accesses            0                       # DTB accesses
system.switch_cpus0.dtb.inst_hits                   0                       # ITB inst hits
system.switch_cpus0.dtb.inst_misses                 0                       # ITB inst misses
system.switch_cpus0.dtb.read_hits            36667963                       # DTB read hits
system.switch_cpus0.dtb.read_misses             26195                       # DTB read misses
system.switch_cpus0.dtb.write_hits           19155945                       # DTB write hits
system.switch_cpus0.dtb.write_misses            41370                       # DTB write misses
system.switch_cpus0.dtb.flush_tlb                   8                       # Number of times complete TLB was flushed
system.switch_cpus0.dtb.flush_tlb_mva               0                       # Number of times TLB was flushed by MVA
system.switch_cpus0.dtb.flush_tlb_mva_asid        19482                       # Number of times TLB was flushed by MVA & ASID
system.switch_cpus0.dtb.flush_tlb_asid            973                       # Number of times TLB was flushed by ASID
system.switch_cpus0.dtb.flush_entries             568                       # Number of entries that have been flushed from TLB
system.switch_cpus0.dtb.align_faults               10                       # Number of TLB faults due to alignment restrictions
system.switch_cpus0.dtb.prefetch_faults         10938                       # Number of TLB faults due to prefetch
system.switch_cpus0.dtb.domain_faults               0                       # Number of TLB faults due to domain restrictions
system.switch_cpus0.dtb.perms_faults              143                       # Number of TLB faults due to permissions restrictions
system.switch_cpus0.dtb.read_accesses        36694158                       # DTB read accesses
system.switch_cpus0.dtb.write_accesses       19197315                       # DTB write accesses
system.switch_cpus0.dtb.inst_accesses               0                       # ITB inst accesses
system.switch_cpus0.dtb.hits                 55823908                       # DTB hits
system.switch_cpus0.dtb.misses                  67565                       # DTB misses
system.switch_cpus0.dtb.accesses             55891473                       # DTB accesses
system.switch_cpus0.istage2_mmu.stage2_tlb.inst_hits            0                       # ITB inst hits
system.switch_cpus0.istage2_mmu.stage2_tlb.inst_misses            0                       # ITB inst misses
system.switch_cpus0.istage2_mmu.stage2_tlb.read_hits            0                       # DTB read hits
system.switch_cpus0.istage2_mmu.stage2_tlb.read_misses            0                       # DTB read misses
system.switch_cpus0.istage2_mmu.stage2_tlb.write_hits            0                       # DTB write hits
system.switch_cpus0.istage2_mmu.stage2_tlb.write_misses            0                       # DTB write misses
system.switch_cpus0.istage2_mmu.stage2_tlb.flush_tlb            0                       # Number of times complete TLB was flushed
system.switch_cpus0.istage2_mmu.stage2_tlb.flush_tlb_mva            0                       # Number of times TLB was flushed by MVA
system.switch_cpus0.istage2_mmu.stage2_tlb.flush_tlb_mva_asid            0                       # Number of times TLB was flushed by MVA & ASID
system.switch_cpus0.istage2_mmu.stage2_tlb.flush_tlb_asid            0                       # Number of times TLB was flushed by ASID
system.switch_cpus0.istage2_mmu.stage2_tlb.flush_entries            0                       # Number of entries that have been flushed from TLB
system.switch_cpus0.istage2_mmu.stage2_tlb.align_faults            0                       # Number of TLB faults due to alignment restrictions
system.switch_cpus0.istage2_mmu.stage2_tlb.prefetch_faults            0                       # Number of TLB faults due to prefetch
system.switch_cpus0.istage2_mmu.stage2_tlb.domain_faults            0                       # Number of TLB faults due to domain restrictions
system.switch_cpus0.istage2_mmu.stage2_tlb.perms_faults            0                       # Number of TLB faults due to permissions restrictions
system.switch_cpus0.istage2_mmu.stage2_tlb.read_accesses            0                       # DTB read accesses
system.switch_cpus0.istage2_mmu.stage2_tlb.write_accesses            0                       # DTB write accesses
system.switch_cpus0.istage2_mmu.stage2_tlb.inst_accesses            0                       # ITB inst accesses
system.switch_cpus0.istage2_mmu.stage2_tlb.hits            0                       # DTB hits
system.switch_cpus0.istage2_mmu.stage2_tlb.misses            0                       # DTB misses
system.switch_cpus0.istage2_mmu.stage2_tlb.accesses            0                       # DTB accesses
system.switch_cpus0.itb.inst_hits           289429713                       # ITB inst hits
system.switch_cpus0.itb.inst_misses              1497                       # ITB inst misses
system.switch_cpus0.itb.read_hits                   0                       # DTB read hits
system.switch_cpus0.itb.read_misses                 0                       # DTB read misses
system.switch_cpus0.itb.write_hits                  0                       # DTB write hits
system.switch_cpus0.itb.write_misses                0                       # DTB write misses
system.switch_cpus0.itb.flush_tlb                   8                       # Number of times complete TLB was flushed
system.switch_cpus0.itb.flush_tlb_mva               0                       # Number of times TLB was flushed by MVA
system.switch_cpus0.itb.flush_tlb_mva_asid        19482                       # Number of times TLB was flushed by MVA & ASID
system.switch_cpus0.itb.flush_tlb_asid            973                       # Number of times TLB was flushed by ASID
system.switch_cpus0.itb.flush_entries             329                       # Number of entries that have been flushed from TLB
system.switch_cpus0.itb.align_faults                0                       # Number of TLB faults due to alignment restrictions
system.switch_cpus0.itb.prefetch_faults             0                       # Number of TLB faults due to prefetch
system.switch_cpus0.itb.domain_faults               0                       # Number of TLB faults due to domain restrictions
system.switch_cpus0.itb.perms_faults              777                       # Number of TLB faults due to permissions restrictions
system.switch_cpus0.itb.read_accesses               0                       # DTB read accesses
system.switch_cpus0.itb.write_accesses              0                       # DTB write accesses
system.switch_cpus0.itb.inst_accesses       289431210                       # ITB inst accesses
system.switch_cpus0.itb.hits                289429713                       # DTB hits
system.switch_cpus0.itb.misses                   1497                       # DTB misses
system.switch_cpus0.itb.accesses            289431210                       # DTB accesses
system.switch_cpus0.numCycles               485773478                       # number of cpu cycles simulated
system.switch_cpus0.numWorkItemsStarted             0                       # number of work items this cpu started
system.switch_cpus0.numWorkItemsCompleted            0                       # number of work items this cpu completed
system.switch_cpus0.fetch.icacheStallCycles      6498891                       # Number of cycles fetch is stalled on an Icache miss
system.switch_cpus0.fetch.Insts             900496548                       # Number of instructions fetch has processed
system.switch_cpus0.fetch.Branches          155968472                       # Number of branches that fetch encountered
system.switch_cpus0.fetch.predictedBranches     77111128                       # Number of branches that fetch has predicted taken
system.switch_cpus0.fetch.Cycles            472637967                       # Number of cycles fetch has run and was not squashing or blocked
system.switch_cpus0.fetch.SquashCycles       11541748                       # Number of cycles fetch has spent squashing
system.switch_cpus0.fetch.TlbCycles             20010                       # Number of cycles fetch has spent waiting for tlb
system.switch_cpus0.fetch.MiscStallCycles         3639                       # Number of cycles fetch has spent waiting on interrupts, or bad addresses, or out of MSHRs
system.switch_cpus0.fetch.PendingTrapStallCycles        31954                       # Number of stall cycles due to pending traps
system.switch_cpus0.fetch.PendingQuiesceStallCycles       230609                       # Number of stall cycles due to pending quiesce instructions
system.switch_cpus0.fetch.IcacheWaitRetryStallCycles         5530                       # Number of stall cycles due to full MSHR
system.switch_cpus0.fetch.CacheLines        289428803                       # Number of cache lines fetched
system.switch_cpus0.fetch.IcacheSquashes        15720                       # Number of outstanding Icache misses that were squashed
system.switch_cpus0.fetch.ItlbSquashes            393                       # Number of outstanding ITLB misses that were squashed
system.switch_cpus0.fetch.rateDist::samples    485199474                       # Number of instructions fetched each cycle (Total)
system.switch_cpus0.fetch.rateDist::mean     1.919586                       # Number of instructions fetched each cycle (Total)
system.switch_cpus0.fetch.rateDist::stdev     1.012115                       # Number of instructions fetched each cycle (Total)
system.switch_cpus0.fetch.rateDist::underflows            0      0.00%      0.00% # Number of instructions fetched each cycle (Total)
system.switch_cpus0.fetch.rateDist::0        27176253      5.60%      5.60% # Number of instructions fetched each cycle (Total)
system.switch_cpus0.fetch.rateDist::1       188061923     38.76%     44.36% # Number of instructions fetched each cycle (Total)
system.switch_cpus0.fetch.rateDist::2        66563828     13.72%     58.08% # Number of instructions fetched each cycle (Total)
system.switch_cpus0.fetch.rateDist::3       203397470     41.92%    100.00% # Number of instructions fetched each cycle (Total)
system.switch_cpus0.fetch.rateDist::overflows            0      0.00%    100.00% # Number of instructions fetched each cycle (Total)
system.switch_cpus0.fetch.rateDist::min_value            0                       # Number of instructions fetched each cycle (Total)
system.switch_cpus0.fetch.rateDist::max_value            3                       # Number of instructions fetched each cycle (Total)
system.switch_cpus0.fetch.rateDist::total    485199474                       # Number of instructions fetched each cycle (Total)
[...]
system.cpu3.dcache.demand_miss_latency::total  91178963811                       # number of demand (read+write) miss cycles
system.cpu3.dcache.overall_miss_latency::switch_cpus3.data  91178963811                       # number of overall miss cycles
system.cpu3.dcache.overall_miss_latency::total  91178963811                       # number of overall miss cycles
system.cpu3.dcache.ReadReq_accesses::switch_cpus3.data     56399894                       # number of ReadReq accesses(hits+misses)
system.cpu3.dcache.ReadReq_accesses::total     56399894                       # number of ReadReq accesses(hits+misses)
system.cpu3.dcache.WriteReq_accesses::switch_cpus3.data     43570553                       # number of WriteReq accesses(hits+misses)
system.cpu3.dcache.WriteReq_accesses::total     43570553                       # number of WriteReq accesses(hits+misses)
system.cpu3.dcache.SoftPFReq_accesses::switch_cpus3.data       578777                       # number of SoftPFReq accesses(hits+misses)
system.cpu3.dcache.SoftPFReq_accesses::total       578777                       # number of SoftPFReq accesses(hits+misses)
system.cpu3.dcache.LoadLockedReq_accesses::switch_cpus3.data       878898                       # number of LoadLockedReq accesses(hits+misses)
system.cpu3.dcache.LoadLockedReq_accesses::total       878898                       # number of LoadLockedReq accesses(hits+misses)
system.cpu3.dcache.StoreCondReq_accesses::switch_cpus3.data       871800                       # number of StoreCondReq accesses(hits+misses)
system.cpu3.dcache.StoreCondReq_accesses::total       871800                       # number of StoreCondReq accesses(hits+misses)
system.cpu3.dcache.demand_accesses::switch_cpus3.data     99970447                       # number of demand (read+write) accesses
system.cpu3.dcache.demand_accesses::total     99970447                       # number of demand (read+write) accesses
system.cpu3.dcache.overall_accesses::switch_cpus3.data    100549224                       # number of overall (read+write) accesses
system.cpu3.dcache.overall_accesses::total    100549224                       # number of overall (read+write) accesses
system.cpu3.dcache.ReadReq_miss_rate::switch_cpus3.data     0.040505                       # miss rate for ReadReq accesses
system.cpu3.dcache.ReadReq_miss_rate::total     0.040505                       # miss rate for ReadReq accesses
system.cpu3.dcache.WriteReq_miss_rate::switch_cpus3.data     0.140344                       # miss rate for WriteReq accesses
system.cpu3.dcache.WriteReq_miss_rate::total     0.140344                       # miss rate for WriteReq accesses
system.cpu3.dcache.SoftPFReq_miss_rate::switch_cpus3.data     0.731339                       # miss rate for SoftPFReq accesses
system.cpu3.dcache.SoftPFReq_miss_rate::total     0.731339                       # miss rate for SoftPFReq accesses
system.cpu3.dcache.LoadLockedReq_miss_rate::switch_cpus3.data     0.051224                       # miss rate for LoadLockedReq accesses
system.cpu3.dcache.LoadLockedReq_miss_rate::total     0.051224                       # miss rate for LoadLockedReq accesses
system.cpu3.dcache.StoreCondReq_miss_rate::switch_cpus3.data     0.005248                       # miss rate for StoreCondReq accesses
system.cpu3.dcache.StoreCondReq_miss_rate::total     0.005248                       # miss rate for StoreCondReq accesses
system.cpu3.dcache.demand_miss_rate::switch_cpus3.data     0.084019                       # miss rate for demand accesses
system.cpu3.dcache.demand_miss_rate::total     0.084019                       # miss rate for demand accesses
system.cpu3.dcache.overall_miss_rate::switch_cpus3.data     0.087745                       # miss rate for overall accesses
system.cpu3.dcache.overall_miss_rate::total     0.087745                       # miss rate for overall accesses
system.cpu3.dcache.ReadReq_avg_miss_latency::switch_cpus3.data 14142.405494                       # average ReadReq miss latency
system.cpu3.dcache.ReadReq_avg_miss_latency::total 14142.405494                       # average ReadReq miss latency
system.cpu3.dcache.WriteReq_avg_miss_latency::switch_cpus3.data  9627.458200                       # average WriteReq miss latency
system.cpu3.dcache.WriteReq_avg_miss_latency::total  9627.458200                       # average WriteReq miss latency
system.cpu3.dcache.LoadLockedReq_avg_miss_latency::switch_cpus3.data 12454.031985                       # average LoadLockedReq miss latency
system.cpu3.dcache.LoadLockedReq_avg_miss_latency::total 12454.031985                       # average LoadLockedReq miss latency
system.cpu3.dcache.StoreCondReq_avg_miss_latency::switch_cpus3.data  5297.536175                       # average StoreCondReq miss latency
system.cpu3.dcache.StoreCondReq_avg_miss_latency::total  5297.536175                       # average StoreCondReq miss latency
system.cpu3.dcache.demand_avg_miss_latency::switch_cpus3.data 10855.450123                       # average overall miss latency
system.cpu3.dcache.demand_avg_miss_latency::total 10855.450123                       # average overall miss latency
system.cpu3.dcache.overall_avg_miss_latency::switch_cpus3.data 10334.641233                       # average overall miss latency
system.cpu3.dcache.overall_avg_miss_latency::total 10334.641233                       # average overall miss latency
system.cpu3.dcache.blocked_cycles::no_mshrs       317173                       # number of cycles access was blocked
system.cpu3.dcache.blocked_cycles::no_targets      6894207                       # number of cycles access was blocked
system.cpu3.dcache.blocked::no_mshrs             3046                       # number of cycles access was blocked
system.cpu3.dcache.blocked::no_targets         725279                       # number of cycles access was blocked
system.cpu3.dcache.avg_blocked_cycles::no_mshrs   104.127708                       # average number of cycles each access was blocked
system.cpu3.dcache.avg_blocked_cycles::no_targets     9.505593                       # average number of cycles each access was blocked
system.cpu3.dcache.fast_writes                      0                       # number of fast writes performed
system.cpu3.dcache.cache_copies                     0                       # number of cache copies performed
system.cpu3.dcache.writebacks::writebacks      1576360                       # number of writebacks
system.cpu3.dcache.writebacks::total          1576360                       # number of writebacks
system.cpu3.dcache.ReadReq_mshr_hits::switch_cpus3.data      1133947                       # number of ReadReq MSHR hits
system.cpu3.dcache.ReadReq_mshr_hits::total      1133947                       # number of ReadReq MSHR hits
system.cpu3.dcache.WriteReq_mshr_hits::switch_cpus3.data      5166414                       # number of WriteReq MSHR hits
system.cpu3.dcache.WriteReq_mshr_hits::total      5166414                       # number of WriteReq MSHR hits
system.cpu3.dcache.LoadLockedReq_mshr_hits::switch_cpus3.data         6932                       # number of LoadLockedReq MSHR hits
system.cpu3.dcache.LoadLockedReq_mshr_hits::total         6932                       # number of LoadLockedReq MSHR hits
system.cpu3.dcache.demand_mshr_hits::switch_cpus3.data      6300361                       # number of demand (read+write) MSHR hits
system.cpu3.dcache.demand_mshr_hits::total      6300361                       # number of demand (read+write) MSHR hits
system.cpu3.dcache.overall_mshr_hits::switch_cpus3.data      6300361                       # number of overall MSHR hits
system.cpu3.dcache.overall_mshr_hits::total      6300361                       # number of overall MSHR hits
system.cpu3.dcache.ReadReq_mshr_misses::switch_cpus3.data      1150545                       # number of ReadReq MSHR misses
system.cpu3.dcache.ReadReq_mshr_misses::total      1150545                       # number of ReadReq MSHR misses
system.cpu3.dcache.WriteReq_mshr_misses::switch_cpus3.data       948466                       # number of WriteReq MSHR misses
system.cpu3.dcache.WriteReq_mshr_misses::total       948466                       # number of WriteReq MSHR misses
system.cpu3.dcache.SoftPFReq_mshr_misses::switch_cpus3.data       387050                       # number of SoftPFReq MSHR misses
system.cpu3.dcache.SoftPFReq_mshr_misses::total       387050                       # number of SoftPFReq MSHR misses
system.cpu3.dcache.LoadLockedReq_mshr_misses::switch_cpus3.data        38089                       # number of LoadLockedReq MSHR misses
system.cpu3.dcache.LoadLockedReq_mshr_misses::total        38089                       # number of LoadLockedReq MSHR misses
system.cpu3.dcache.StoreCondReq_mshr_misses::switch_cpus3.data         4575                       # number of StoreCondReq MSHR misses
system.cpu3.dcache.StoreCondReq_mshr_misses::total         4575                       # number of StoreCondReq MSHR misses
system.cpu3.dcache.demand_mshr_misses::switch_cpus3.data      2099011                       # number of demand (read+write) MSHR misses
system.cpu3.dcache.demand_mshr_misses::total      2099011                       # number of demand (read+write) MSHR misses
system.cpu3.dcache.overall_mshr_misses::switch_cpus3.data      2486061                       # number of overall MSHR misses
system.cpu3.dcache.overall_mshr_misses::total      2486061                       # number of overall MSHR misses
system.cpu3.dcache.ReadReq_mshr_miss_latency::switch_cpus3.data  12851160242                       # number of ReadReq MSHR miss cycles
system.cpu3.dcache.ReadReq_mshr_miss_latency::total  12851160242                       # number of ReadReq MSHR miss cycles
system.cpu3.dcache.WriteReq_mshr_miss_latency::switch_cpus3.data  11530760050                       # number of WriteReq MSHR miss cycles
system.cpu3.dcache.WriteReq_mshr_miss_latency::total  11530760050                       # number of WriteReq MSHR miss cycles
system.cpu3.dcache.SoftPFReq_mshr_miss_latency::switch_cpus3.data   5568518617                       # number of SoftPFReq MSHR miss cycles
system.cpu3.dcache.SoftPFReq_mshr_miss_latency::total   5568518617                       # number of SoftPFReq MSHR miss cycles
system.cpu3.dcache.LoadLockedReq_mshr_miss_latency::switch_cpus3.data    416593026                       # number of LoadLockedReq MSHR miss cycles
system.cpu3.dcache.LoadLockedReq_mshr_miss_latency::total    416593026                       # number of LoadLockedReq MSHR miss cycles
system.cpu3.dcache.StoreCondReq_mshr_miss_latency::switch_cpus3.data     15085772                       # number of StoreCondReq MSHR miss cycles
system.cpu3.dcache.StoreCondReq_mshr_miss_latency::total     15085772                       # number of StoreCondReq MSHR miss cycles
system.cpu3.dcache.demand_mshr_miss_latency::switch_cpus3.data  24381920292                       # number of demand (read+write) MSHR miss cycles
system.cpu3.dcache.demand_mshr_miss_latency::total  24381920292                       # number of demand (read+write) MSHR miss cycles
system.cpu3.dcache.overall_mshr_miss_latency::switch_cpus3.data  29950438909                       # number of overall MSHR miss cycles
system.cpu3.dcache.overall_mshr_miss_latency::total  29950438909                       # number of overall MSHR miss cycles
system.cpu3.dcache.ReadReq_mshr_uncacheable_latency::switch_cpus3.data    535261006                       # number of ReadReq MSHR uncacheable cycles
system.cpu3.dcache.ReadReq_mshr_uncacheable_latency::total    535261006                       # number of ReadReq MSHR uncacheable cycles
system.cpu3.dcache.WriteReq_mshr_uncacheable_latency::switch_cpus3.data      5243999                       # number of WriteReq MSHR uncacheable cycles
system.cpu3.dcache.WriteReq_mshr_uncacheable_latency::total      5243999                       # number of WriteReq MSHR uncacheable cycles
system.cpu3.dcache.overall_mshr_uncacheable_latency::switch_cpus3.data    540505005                       # number of overall MSHR uncacheable cycles
system.cpu3.dcache.overall_mshr_uncacheable_latency::total    540505005                       # number of overall MSHR uncacheable cycles
system.cpu3.dcache.ReadReq_mshr_miss_rate::switch_cpus3.data     0.020400                       # mshr miss rate for ReadReq accesses
system.cpu3.dcache.ReadReq_mshr_miss_rate::total     0.020400                       # mshr miss rate for ReadReq accesses
system.cpu3.dcache.WriteReq_mshr_miss_rate::switch_cpus3.data     0.021769                       # mshr miss rate for WriteReq accesses
system.cpu3.dcache.WriteReq_mshr_miss_rate::total     0.021769                       # mshr miss rate for WriteReq accesses
system.cpu3.dcache.SoftPFReq_mshr_miss_rate::switch_cpus3.data     0.668738                       # mshr miss rate for SoftPFReq accesses
system.cpu3.dcache.SoftPFReq_mshr_miss_rate::total     0.668738                       # mshr miss rate for SoftPFReq accesses
system.cpu3.dcache.LoadLockedReq_mshr_miss_rate::switch_cpus3.data     0.043337                       # mshr miss rate for LoadLockedReq accesses
system.cpu3.dcache.LoadLockedReq_mshr_miss_rate::total     0.043337                       # mshr miss rate for LoadLockedReq accesses
system.cpu3.dcache.StoreCondReq_mshr_miss_rate::switch_cpus3.data     0.005248                       # mshr miss rate for StoreCondReq accesses
system.cpu3.dcache.StoreCondReq_mshr_miss_rate::total     0.005248                       # mshr miss rate for StoreCondReq accesses
system.cpu3.dcache.demand_mshr_miss_rate::switch_cpus3.data     0.020996                       # mshr miss rate for demand accesses
system.cpu3.dcache.demand_mshr_miss_rate::total     0.020996                       # mshr miss rate for demand accesses
system.cpu3.dcache.overall_mshr_miss_rate::switch_cpus3.data     0.024725                       # mshr miss rate for overall accesses
system.cpu3.dcache.overall_mshr_miss_rate::total     0.024725                       # mshr miss rate for overall accesses
system.cpu3.dcache.ReadReq_avg_mshr_miss_latency::switch_cpus3.data 11169.628517                       # average ReadReq mshr miss latency
system.cpu3.dcache.ReadReq_avg_mshr_miss_latency::total 11169.628517                       # average ReadReq mshr miss latency
system.cpu3.dcache.WriteReq_avg_mshr_miss_latency::switch_cpus3.data 12157.272954                       # average WriteReq mshr miss latency
system.cpu3.dcache.WriteReq_avg_mshr_miss_latency::total 12157.272954                       # average WriteReq mshr miss latency
system.cpu3.dcache.SoftPFReq_avg_mshr_miss_latency::switch_cpus3.data 14387.078199                       # average SoftPFReq mshr miss latency
system.cpu3.dcache.SoftPFReq_avg_mshr_miss_latency::total 14387.078199                       # average SoftPFReq mshr miss latency
system.cpu3.dcache.LoadLockedReq_avg_mshr_miss_latency::switch_cpus3.data 10937.357925                       # average LoadLockedReq mshr miss latency
system.cpu3.dcache.LoadLockedReq_avg_mshr_miss_latency::total 10937.357925                       # average LoadLockedReq mshr miss latency
system.cpu3.dcache.StoreCondReq_avg_mshr_miss_latency::switch_cpus3.data  3297.436503                       # average StoreCondReq mshr miss latency
system.cpu3.dcache.StoreCondReq_avg_mshr_miss_latency::total  3297.436503                       # average StoreCondReq mshr miss latency
system.cpu3.dcache.demand_avg_mshr_miss_latency::switch_cpus3.data 11615.908774                       # average overall mshr miss latency
system.cpu3.dcache.demand_avg_mshr_miss_latency::total 11615.908774                       # average overall mshr miss latency
system.cpu3.dcache.overall_avg_mshr_miss_latency::switch_cpus3.data 12047.346750                       # average overall mshr miss latency
system.cpu3.dcache.overall_avg_mshr_miss_latency::total 12047.346750                       # average overall mshr miss latency
system.cpu3.dcache.ReadReq_avg_mshr_uncacheable_latency::switch_cpus3.data          inf                       # average ReadReq mshr uncacheable latency
system.cpu3.dcache.ReadReq_avg_mshr_uncacheable_latency::total          inf                       # average ReadReq mshr uncacheable latency
system.cpu3.dcache.WriteReq_avg_mshr_uncacheable_latency::switch_cpus3.data          inf                       # average WriteReq mshr uncacheable latency
system.cpu3.dcache.WriteReq_avg_mshr_uncacheable_latency::total          inf                       # average WriteReq mshr uncacheable latency
system.cpu3.dcache.overall_avg_mshr_uncacheable_latency::switch_cpus3.data          inf                       # average overall mshr uncacheable latency
system.cpu3.dcache.overall_avg_mshr_uncacheable_latency::total          inf                       # average overall mshr uncacheable latency
system.cpu3.dcache.no_allocate_misses               0                       # Number of misses that were no-allocate
system.iocache.tags.replacements                    0                       # number of replacements
system.iocache.tags.tagsinuse                       0                       # Cycle average of tags in use
system.iocache.tags.total_refs                      0                       # Total number of references to valid blocks.
system.iocache.tags.sampled_refs                    0                       # Sample count of references to valid blocks.
system.iocache.tags.avg_refs                      nan                       # Average number of references to valid blocks.
system.iocache.tags.warmup_cycle                    0                       # Cycle when the warmup percentage was hit.
system.iocache.tags.tag_accesses                    0                       # Number of tag accesses
system.iocache.tags.data_accesses                   0                       # Number of data accesses
system.iocache.blocked_cycles::no_mshrs             0                       # number of cycles access was blocked
system.iocache.blocked_cycles::no_targets            0                       # number of cycles access was blocked
system.iocache.blocked::no_mshrs                    0                       # number of cycles access was blocked
system.iocache.blocked::no_targets                  0                       # number of cycles access was blocked
system.iocache.avg_blocked_cycles::no_mshrs          nan                       # average number of cycles each access was blocked
system.iocache.avg_blocked_cycles::no_targets          nan                       # average number of cycles each access was blocked
system.iocache.fast_writes                          0                       # number of fast writes performed
system.iocache.cache_copies                         0                       # number of cache copies performed
system.iocache.no_allocate_misses                   0                       # Number of misses that were no-allocate
system.switch_cpus0.kern.inst.arm                   0                       # number of arm instructions executed
system.switch_cpus0.kern.inst.quiesce               0                       # number of quiesce instructions executed
system.switch_cpus1.kern.inst.arm                   0                       # number of arm instructions executed
system.switch_cpus1.kern.inst.quiesce               0                       # number of quiesce instructions executed
system.switch_cpus2.kern.inst.arm                   0                       # number of arm instructions executed
system.switch_cpus2.kern.inst.quiesce               0                       # number of quiesce instructions executed
system.switch_cpus3.kern.inst.arm                   0                       # number of arm instructions executed
system.switch_cpus3.kern.inst.quiesce               0                       # number of quiesce instructions executed

---------- End Simulation Statistics   ----------
