
---------- Begin Simulation Statistics ----------
sim_seconds                                  0.045851                       # Number of seconds simulated
sim_ticks                                 45851153500                       # Number of ticks simulated
final_tick                               2917809189500                       # Number of ticks from beginning of simulation (restored from checkpoints and never reset)
sim_freq                                 1000000000000                       # Frequency of simulated ticks
host_inst_rate                                 243025                       # Simulator instruction rate (inst/s)
host_op_rate                                   255371                       # Simulator op (including micro ops) rate (op/s)
host_tick_rate                               26284899                       # Simulator tick rate (ticks/s)
host_mem_usage                                1004896                       # Number of bytes of host memory used
host_seconds                                  1744.39                       # Real time elapsed on the host
sim_insts                                   423930904                       # Number of instructions simulated
sim_ops                                     445466677                       # Number of ops (including micro ops) simulated
system.voltage_domain.voltage                       1                       # Voltage in Volts
system.clk_domain.clock                          1000                       # Clock period in ticks
system.realview.vram.bytes_read::realview.clcd      2457600                       # Number of bytes read from this memory
system.realview.vram.bytes_read::total        2457600                       # Number of bytes read from this memory
system.realview.vram.num_reads::realview.clcd       307200                       # Number of read requests responded to by this memory
system.realview.vram.num_reads::total          307200                       # Number of read requests responded to by this memory
system.realview.vram.bw_read::realview.clcd     53599524                       # Total read bandwidth from this memory (bytes/s)
system.realview.vram.bw_read::total          53599524                       # Total read bandwidth from this memory (bytes/s)
system.realview.vram.bw_total::realview.clcd     53599524                       # Total bandwidth to/from this memory (bytes/s)
system.realview.vram.bw_total::total         53599524                       # Total bandwidth to/from this memory (bytes/s)
system.mem_ctrls.bytes_read::switch_cpus0.dtb.walker        17536                       # Number of bytes read from this memory
system.mem_ctrls.bytes_read::switch_cpus0.itb.walker         2688                       # Number of bytes read from this memory
system.mem_ctrls.bytes_read::switch_cpus0.inst       124864                       # Number of bytes read from this memory
system.mem_ctrls.bytes_read::switch_cpus0.data      1545664                       # Number of bytes read from this memory
system.mem_ctrls.bytes_read::switch_cpus1.dtb.walker        17536                       # Number of bytes read from this memory
system.mem_ctrls.bytes_read::switch_cpus1.itb.walker         8704                       # Number of bytes read from this memory
system.mem_ctrls.bytes_read::switch_cpus1.inst       385600                       # Number of bytes read from this memory
system.mem_ctrls.bytes_read::switch_cpus1.data      1422208                       # Number of bytes read from this memory
system.mem_ctrls.bytes_read::switch_cpus2.dtb.walker         7552                       # Number of bytes read from this memory
system.mem_ctrls.bytes_read::switch_cpus2.itb.walker         3328                       # Number of bytes read from this memory
system.mem_ctrls.bytes_read::switch_cpus2.inst        93632                       # Number of bytes read from this memory
system.mem_ctrls.bytes_read::switch_cpus2.data       648896                       # Number of bytes read from this memory
system.mem_ctrls.bytes_read::switch_cpus3.dtb.walker         4928                       # Number of bytes read from this memory
system.mem_ctrls.bytes_read::switch_cpus3.itb.walker         3392                       # Number of bytes read from this memory
system.mem_ctrls.bytes_read::switch_cpus3.inst        88832                       # Number of bytes read from this memory
system.mem_ctrls.bytes_read::switch_cpus3.data       516288                       # Number of bytes read from this memory
system.mem_ctrls.bytes_read::l2.prefetcher     11202432                       # Number of bytes read from this memory
system.mem_ctrls.bytes_read::cpu0.inst            320                       # Number of bytes read from this memory
system.mem_ctrls.bytes_read::cpu0.data            192                       # Number of bytes read from this memory
system.mem_ctrls.bytes_read::cpu1.inst            192                       # Number of bytes read from this memory
system.mem_ctrls.bytes_read::cpu1.data            192                       # Number of bytes read from this memory
system.mem_ctrls.bytes_read::total           16094976                       # Number of bytes read from this memory
system.mem_ctrls.bytes_inst_read::switch_cpus0.inst       124864                       # Number of instructions bytes read from this memory
system.mem_ctrls.bytes_inst_read::switch_cpus1.inst       385600                       # Number of instructions bytes read from this memory
system.mem_ctrls.bytes_inst_read::switch_cpus2.inst        93632                       # Number of instructions bytes read from this memory
system.mem_ctrls.bytes_inst_read::switch_cpus3.inst        88832                       # Number of instructions bytes read from this memory
system.mem_ctrls.bytes_inst_read::cpu0.inst          320                       # Number of instructions bytes read from this memory
system.mem_ctrls.bytes_inst_read::cpu1.inst          192                       # Number of instructions bytes read from this memory
system.mem_ctrls.bytes_inst_read::total        693440                       # Number of instructions bytes read from this memory
system.mem_ctrls.bytes_written::writebacks      7272640                       # Number of bytes written to this memory
system.mem_ctrls.bytes_written::total         7272640                       # Number of bytes written to this memory
system.mem_ctrls.num_reads::switch_cpus0.dtb.walker          274                       # Number of read requests responded to by this memory
system.mem_ctrls.num_reads::switch_cpus0.itb.walker           42                       # Number of read requests responded to by this memory
system.mem_ctrls.num_reads::switch_cpus0.inst         1951                       # Number of read requests responded to by this memory
system.mem_ctrls.num_reads::switch_cpus0.data        24151                       # Number of read requests responded to by this memory
system.mem_ctrls.num_reads::switch_cpus1.dtb.walker          274                       # Number of read requests responded to by this memory
system.mem_ctrls.num_reads::switch_cpus1.itb.walker          136                       # Number of read requests responded to by this memory
system.mem_ctrls.num_reads::switch_cpus1.inst         6025                       # Number of read requests responded to by this memory
system.mem_ctrls.num_reads::switch_cpus1.data        22222                       # Number of read requests responded to by this memory
system.mem_ctrls.num_reads::switch_cpus2.dtb.walker          118                       # Number of read requests responded to by this memory
system.mem_ctrls.num_reads::switch_cpus2.itb.walker           52                       # Number of read requests responded to by this memory
system.mem_ctrls.num_reads::switch_cpus2.inst         1463                       # Number of read requests responded to by this memory
system.mem_ctrls.num_reads::switch_cpus2.data        10139                       # Number of read requests responded to by this memory
system.mem_ctrls.num_reads::switch_cpus3.dtb.walker           77                       # Number of read requests responded to by this memory
system.mem_ctrls.num_reads::switch_cpus3.itb.walker           53                       # Number of read requests responded to by this memory
system.mem_ctrls.num_reads::switch_cpus3.inst         1388                       # Number of read requests responded to by this memory
system.mem_ctrls.num_reads::switch_cpus3.data         8067                       # Number of read requests responded to by this memory
system.mem_ctrls.num_reads::l2.prefetcher       175038                       # Number of read requests responded to by this memory
system.mem_ctrls.num_reads::cpu0.inst               5                       # Number of read requests responded to by this memory
system.mem_ctrls.num_reads::cpu0.data               3                       # Number of read requests responded to by this memory
system.mem_ctrls.num_reads::cpu1.inst               3                       # Number of read requests responded to by this memory
system.mem_ctrls.num_reads::cpu1.data               3                       # Number of read requests responded to by this memory
system.mem_ctrls.num_reads::total              251484                       # Number of read requests responded to by this memory
system.mem_ctrls.num_writes::writebacks        113635                       # Number of write requests responded to by this memory
system.mem_ctrls.num_writes::total             113635                       # Number of write requests responded to by this memory
system.mem_ctrls.bw_read::switch_cpus0.dtb.walker       382455                       # Total read bandwidth from this memory (bytes/s)
system.mem_ctrls.bw_read::switch_cpus0.itb.walker        58624                       # Total read bandwidth from this memory (bytes/s)
system.mem_ctrls.bw_read::switch_cpus0.inst      2723247                       # Total read bandwidth from this memory (bytes/s)
system.mem_ctrls.bw_read::switch_cpus0.data     33710471                       # Total read bandwidth from this memory (bytes/s)
system.mem_ctrls.bw_read::switch_cpus1.dtb.walker       382455                       # Total read bandwidth from this memory (bytes/s)
system.mem_ctrls.bw_read::switch_cpus1.itb.walker       189832                       # Total read bandwidth from this memory (bytes/s)
system.mem_ctrls.bw_read::switch_cpus1.inst      8409821                       # Total read bandwidth from this memory (bytes/s)
system.mem_ctrls.bw_read::switch_cpus1.data     31017933                       # Total read bandwidth from this memory (bytes/s)
system.mem_ctrls.bw_read::switch_cpus2.dtb.walker       164707                       # Total read bandwidth from this memory (bytes/s)
system.mem_ctrls.bw_read::switch_cpus2.itb.walker        72583                       # Total read bandwidth from this memory (bytes/s)
system.mem_ctrls.bw_read::switch_cpus2.inst      2042086                       # Total read bandwidth from this memory (bytes/s)
system.mem_ctrls.bw_read::switch_cpus2.data     14152228                       # Total read bandwidth from this memory (bytes/s)
system.mem_ctrls.bw_read::switch_cpus3.dtb.walker       107478                       # Total read bandwidth from this memory (bytes/s)
system.mem_ctrls.bw_read::switch_cpus3.itb.walker        73979                       # Total read bandwidth from this memory (bytes/s)
system.mem_ctrls.bw_read::switch_cpus3.inst      1937399                       # Total read bandwidth from this memory (bytes/s)
system.mem_ctrls.bw_read::switch_cpus3.data     11260087                       # Total read bandwidth from this memory (bytes/s)
system.mem_ctrls.bw_read::l2.prefetcher     244321705                       # Total read bandwidth from this memory (bytes/s)
system.mem_ctrls.bw_read::cpu0.inst              6979                       # Total read bandwidth from this memory (bytes/s)
system.mem_ctrls.bw_read::cpu0.data              4187                       # Total read bandwidth from this memory (bytes/s)
system.mem_ctrls.bw_read::cpu1.inst              4187                       # Total read bandwidth from this memory (bytes/s)
system.mem_ctrls.bw_read::cpu1.data              4187                       # Total read bandwidth from this memory (bytes/s)
system.mem_ctrls.bw_read::total             351026632                       # Total read bandwidth from this memory (bytes/s)
system.mem_ctrls.bw_inst_read::switch_cpus0.inst      2723247                       # Instruction read bandwidth from this memory (bytes/s)
system.mem_ctrls.bw_inst_read::switch_cpus1.inst      8409821                       # Instruction read bandwidth from this memory (bytes/s)
system.mem_ctrls.bw_inst_read::switch_cpus2.inst      2042086                       # Instruction read bandwidth from this memory (bytes/s)
system.mem_ctrls.bw_inst_read::switch_cpus3.inst      1937399                       # Instruction read bandwidth from this memory (bytes/s)
system.mem_ctrls.bw_inst_read::cpu0.inst         6979                       # Instruction read bandwidth from this memory (bytes/s)
system.mem_ctrls.bw_inst_read::cpu1.inst         4187                       # Instruction read bandwidth from this memory (bytes/s)
system.mem_ctrls.bw_inst_read::total         15123720                       # Instruction read bandwidth from this memory (bytes/s)
system.mem_ctrls.bw_write::writebacks       158614112                       # Write bandwidth from this memory (bytes/s)
system.mem_ctrls.bw_write::total            158614112                       # Write bandwidth from this memory (bytes/s)
system.mem_ctrls.bw_total::writebacks       158614112                       # Total bandwidth to/from this memory (bytes/s)
system.mem_ctrls.bw_total::switch_cpus0.dtb.walker       382455                       # Total bandwidth to/from this memory (bytes/s)
system.mem_ctrls.bw_total::switch_cpus0.itb.walker        58624                       # Total bandwidth to/from this memory (bytes/s)
system.mem_ctrls.bw_total::switch_cpus0.inst      2723247                       # Total bandwidth to/from this memory (bytes/s)
system.mem_ctrls.bw_total::switch_cpus0.data     33710471                       # Total bandwidth to/from this memory (bytes/s)
system.mem_ctrls.bw_total::switch_cpus1.dtb.walker       382455                       # Total bandwidth to/from this memory (bytes/s)
system.mem_ctrls.bw_total::switch_cpus1.itb.walker       189832                       # Total bandwidth to/from this memory (bytes/s)
system.mem_ctrls.bw_total::switch_cpus1.inst      8409821                       # Total bandwidth to/from this memory (bytes/s)
system.mem_ctrls.bw_total::switch_cpus1.data     31017933                       # Total bandwidth to/from this memory (bytes/s)
system.mem_ctrls.bw_total::switch_cpus2.dtb.walker       164707                       # Total bandwidth to/from this memory (bytes/s)
system.mem_ctrls.bw_total::switch_cpus2.itb.walker        72583                       # Total bandwidth to/from this memory (bytes/s)
system.mem_ctrls.bw_total::switch_cpus2.inst      2042086                       # Total bandwidth to/from this memory (bytes/s)
system.mem_ctrls.bw_total::switch_cpus2.data     14152228                       # Total bandwidth to/from this memory (bytes/s)
system.mem_ctrls.bw_total::switch_cpus3.dtb.walker       107478                       # Total bandwidth to/from this memory (bytes/s)
system.mem_ctrls.bw_total::switch_cpus3.itb.walker        73979                       # Total bandwidth to/from this memory (bytes/s)
system.mem_ctrls.bw_total::switch_cpus3.inst      1937399                       # Total bandwidth to/from this memory (bytes/s)
system.mem_ctrls.bw_total::switch_cpus3.data     11260087                       # Total bandwidth to/from this memory (bytes/s)
system.mem_ctrls.bw_total::l2.prefetcher    244321705                       # Total bandwidth to/from this memory (bytes/s)
system.mem_ctrls.bw_total::cpu0.inst             6979                       # Total bandwidth to/from this memory (bytes/s)
system.mem_ctrls.bw_total::cpu0.data             4187                       # Total bandwidth to/from this memory (bytes/s)
system.mem_ctrls.bw_total::cpu1.inst             4187                       # Total bandwidth to/from this memory (bytes/s)
system.mem_ctrls.bw_total::cpu1.data             4187                       # Total bandwidth to/from this memory (bytes/s)
system.mem_ctrls.bw_total::total            509640744                       # Total bandwidth to/from this memory (bytes/s)
system.mem_ctrls.readReqs                      251473                       # Number of read requests accepted
system.mem_ctrls.writeReqs                     113635                       # Number of write requests accepted
system.mem_ctrls.readBursts                    251473                       # Number of DRAM read bursts, including those serviced by the write queue
system.mem_ctrls.writeBursts                   113635                       # Number of DRAM write bursts, including those merged in the write queue
system.mem_ctrls.bytesReadDRAM               16077248                       # Total number of bytes read from DRAM
system.mem_ctrls.bytesReadWrQ                   17024                       # Total number of bytes read from write queue
system.mem_ctrls.bytesWritten                 7270720                       # Total number of bytes written to DRAM
system.mem_ctrls.bytesReadSys                16094272                       # Total read bytes from the system interface side
system.mem_ctrls.bytesWrittenSys              7272640                       # Total written bytes from the system interface side
system.mem_ctrls.servicedByWrQ                    266                       # Number of DRAM read bursts serviced by the write queue
system.mem_ctrls.mergedWrBursts                     0                       # Number of DRAM write bursts merged with an existing one
system.mem_ctrls.neitherReadNorWriteReqs         8316                       # Number of requests that are neither read nor write
system.mem_ctrls.perBankRdBursts::0             12900                       # Per bank write bursts
system.mem_ctrls.perBankRdBursts::1             11697                       # Per bank write bursts
system.mem_ctrls.perBankRdBursts::2             14982                       # Per bank write bursts
system.mem_ctrls.perBankRdBursts::3             18263                       # Per bank write bursts
system.mem_ctrls.perBankRdBursts::4             16004                       # Per bank write bursts
system.mem_ctrls.perBankRdBursts::5             15998                       # Per bank write bursts
system.mem_ctrls.perBankRdBursts::6             18592                       # Per bank write bursts
system.mem_ctrls.perBankRdBursts::7             17174                       # Per bank write bursts
system.mem_ctrls.perBankRdBursts::8             16198                       # Per bank write bursts
system.mem_ctrls.perBankRdBursts::9             16211                       # Per bank write bursts
system.mem_ctrls.perBankRdBursts::10            17729                       # Per bank write bursts
system.mem_ctrls.perBankRdBursts::11            17105                       # Per bank write bursts
system.mem_ctrls.perBankRdBursts::12            15085                       # Per bank write bursts
system.mem_ctrls.perBankRdBursts::13            12472                       # Per bank write bursts
system.mem_ctrls.perBankRdBursts::14            14382                       # Per bank write bursts
system.mem_ctrls.perBankRdBursts::15            16415                       # Per bank write bursts
system.mem_ctrls.perBankWrBursts::0              6336                       # Per bank write bursts
system.mem_ctrls.perBankWrBursts::1              5792                       # Per bank write bursts
system.mem_ctrls.perBankWrBursts::2              6647                       # Per bank write bursts
system.mem_ctrls.perBankWrBursts::3              7724                       # Per bank write bursts
system.mem_ctrls.perBankWrBursts::4              7012                       # Per bank write bursts
system.mem_ctrls.perBankWrBursts::5              7251                       # Per bank write bursts
system.mem_ctrls.perBankWrBursts::6              7310                       # Per bank write bursts
system.mem_ctrls.perBankWrBursts::7              7599                       # Per bank write bursts
system.mem_ctrls.perBankWrBursts::8              7461                       # Per bank write bursts
system.mem_ctrls.perBankWrBursts::9              6981                       # Per bank write bursts
system.mem_ctrls.perBankWrBursts::10             8529                       # Per bank write bursts
system.mem_ctrls.perBankWrBursts::11             7244                       # Per bank write bursts
system.mem_ctrls.perBankWrBursts::12             6936                       # Per bank write bursts
system.mem_ctrls.perBankWrBursts::13             6642                       # Per bank write bursts
system.mem_ctrls.perBankWrBursts::14             6960                       # Per bank write bursts
system.mem_ctrls.perBankWrBursts::15             7181                       # Per bank write bursts
system.mem_ctrls.numRdRetry                         0                       # Number of times read queue was full causing retry
system.mem_ctrls.numWrRetry                         0                       # Number of times write queue was full causing retry
system.mem_ctrls.totGap                   45851131500                       # Total gap between requests
system.mem_ctrls.readPktSize::0                     0                       # Read request sizes (log2)
system.mem_ctrls.readPktSize::1                     0                       # Read request sizes (log2)
system.mem_ctrls.readPktSize::2                     0                       # Read request sizes (log2)
system.mem_ctrls.readPktSize::3                     0                       # Read request sizes (log2)
system.mem_ctrls.readPktSize::4                     0                       # Read request sizes (log2)
system.mem_ctrls.readPktSize::5                     0                       # Read request sizes (log2)
system.mem_ctrls.readPktSize::6                251473                       # Read request sizes (log2)
system.mem_ctrls.writePktSize::0                    0                       # Write request sizes (log2)
system.mem_ctrls.writePktSize::1                    0                       # Write request sizes (log2)
system.mem_ctrls.writePktSize::2                    0                       # Write request sizes (log2)
system.mem_ctrls.writePktSize::3                    0                       # Write request sizes (log2)
system.mem_ctrls.writePktSize::4                    0                       # Write request sizes (log2)
system.mem_ctrls.writePktSize::5                    0                       # Write request sizes (log2)
system.mem_ctrls.writePktSize::6               113635                       # Write request sizes (log2)
system.mem_ctrls.rdQLenPdf::0                   70685                       # What read queue length does an incoming req see
system.mem_ctrls.rdQLenPdf::1                   51200                       # What read queue length does an incoming req see
system.mem_ctrls.rdQLenPdf::2                   28358                       # What read queue length does an incoming req see
system.mem_ctrls.rdQLenPdf::3                   20603                       # What read queue length does an incoming req see
system.mem_ctrls.rdQLenPdf::4                   16689                       # What read queue length does an incoming req see
system.mem_ctrls.rdQLenPdf::5                   13902                       # What read queue length does an incoming req see
system.mem_ctrls.rdQLenPdf::6                   11435                       # What read queue length does an incoming req see
system.mem_ctrls.rdQLenPdf::7                    9685                       # What read queue length does an incoming req see
system.mem_ctrls.rdQLenPdf::8                    8292                       # What read queue length does an incoming req see
system.mem_ctrls.rdQLenPdf::9                    5871                       # What read queue length does an incoming req see
system.mem_ctrls.rdQLenPdf::10                   4168                       # What read queue length does an incoming req see
system.mem_ctrls.rdQLenPdf::11                   3671                       # What read queue length does an incoming req see
system.mem_ctrls.rdQLenPdf::12                   2406                       # What read queue length does an incoming req see
system.mem_ctrls.rdQLenPdf::13                   1840                       # What read queue length does an incoming req see
system.mem_ctrls.rdQLenPdf::14                   1425                       # What read queue length does an incoming req see
system.mem_ctrls.rdQLenPdf::15                    977                       # What read queue length does an incoming req see
system.mem_ctrls.rdQLenPdf::16                      0                       # What read queue length does an incoming req see
system.mem_ctrls.rdQLenPdf::17                      0                       # What read queue length does an incoming req see
system.mem_ctrls.rdQLenPdf::18                      0                       # What read queue length does an incoming req see
system.mem_ctrls.rdQLenPdf::19                      0                       # What read queue length does an incoming req see
system.mem_ctrls.rdQLenPdf::20                      0                       # What read queue length does an incoming req see
system.mem_ctrls.rdQLenPdf::21                      0                       # What read queue length does an incoming req see
system.mem_ctrls.rdQLenPdf::22                      0                       # What read queue length does an incoming req see
system.mem_ctrls.rdQLenPdf::23                      0                       # What read queue length does an incoming req see
system.mem_ctrls.rdQLenPdf::24                      0                       # What read queue length does an incoming req see
system.mem_ctrls.rdQLenPdf::25                      0                       # What read queue length does an incoming req see
system.mem_ctrls.rdQLenPdf::26                      0                       # What read queue length does an incoming req see
system.mem_ctrls.rdQLenPdf::27                      0                       # What read queue length does an incoming req see
system.mem_ctrls.rdQLenPdf::28                      0                       # What read queue length does an incoming req see
system.mem_ctrls.rdQLenPdf::29                      0                       # What read queue length does an incoming req see
system.mem_ctrls.rdQLenPdf::30                      0                       # What read queue length does an incoming req see
system.mem_ctrls.rdQLenPdf::31                      0                       # What read queue length does an incoming req see
system.mem_ctrls.wrQLenPdf::0                       1                       # What write queue length does an incoming req see
system.mem_ctrls.wrQLenPdf::1                       1                       # What write queue length does an incoming req see
system.mem_ctrls.wrQLenPdf::2                       1                       # What write queue length does an incoming req see
system.mem_ctrls.wrQLenPdf::3                       1                       # What write queue length does an incoming req see
system.mem_ctrls.wrQLenPdf::4                       1                       # What write queue length does an incoming req see
system.mem_ctrls.wrQLenPdf::5                       1                       # What write queue length does an incoming req see
system.mem_ctrls.wrQLenPdf::6                       1                       # What write queue length does an incoming req see
system.mem_ctrls.wrQLenPdf::7                       1                       # What write queue length does an incoming req see
system.mem_ctrls.wrQLenPdf::8                       1                       # What write queue length does an incoming req see
system.mem_ctrls.wrQLenPdf::9                       1                       # What write queue length does an incoming req see
system.mem_ctrls.wrQLenPdf::10                      1                       # What write queue length does an incoming req see
system.mem_ctrls.wrQLenPdf::11                      1                       # What write queue length does an incoming req see
system.mem_ctrls.wrQLenPdf::12                      1                       # What write queue length does an incoming req see
system.mem_ctrls.wrQLenPdf::13                      1                       # What write queue length does an incoming req see
system.mem_ctrls.wrQLenPdf::14                      1                       # What write queue length does an incoming req see
system.mem_ctrls.wrQLenPdf::15                    931                       # What write queue length does an incoming req see
system.mem_ctrls.wrQLenPdf::16                    991                       # What write queue length does an incoming req see
system.mem_ctrls.wrQLenPdf::17                   2363                       # What write queue length does an incoming req see
system.mem_ctrls.wrQLenPdf::18                   3488                       # What write queue length does an incoming req see
system.mem_ctrls.wrQLenPdf::19                   4366                       # What write queue length does an incoming req see
system.mem_ctrls.wrQLenPdf::20                   5091                       # What write queue length does an incoming req see
system.mem_ctrls.wrQLenPdf::21                   5657                       # What write queue length does an incoming req see
system.mem_ctrls.wrQLenPdf::22                   6155                       # What write queue length does an incoming req see
system.mem_ctrls.wrQLenPdf::23                   6613                       # What write queue length does an incoming req see
system.mem_ctrls.wrQLenPdf::24                   7016                       # What write queue length does an incoming req see
system.mem_ctrls.wrQLenPdf::25                   7498                       # What write queue length does an incoming req see
system.mem_ctrls.wrQLenPdf::26                   7927                       # What write queue length does an incoming req see
system.mem_ctrls.wrQLenPdf::27                   8400                       # What write queue length does an incoming req see
system.mem_ctrls.wrQLenPdf::28                   9088                       # What write queue length does an incoming req see
system.mem_ctrls.wrQLenPdf::29                   8994                       # What write queue length does an incoming req see
system.mem_ctrls.wrQLenPdf::30                   8949                       # What write queue length does an incoming req see
system.mem_ctrls.wrQLenPdf::31                   8952                       # What write queue length does an incoming req see
system.mem_ctrls.wrQLenPdf::32                   7981                       # What write queue length does an incoming req see
system.mem_ctrls.wrQLenPdf::33                    994                       # What write queue length does an incoming req see
system.mem_ctrls.wrQLenPdf::34                    628                       # What write queue length does an incoming req see
system.mem_ctrls.wrQLenPdf::35                    440                       # What write queue length does an incoming req see
system.mem_ctrls.wrQLenPdf::36                    300                       # What write queue length does an incoming req see
system.mem_ctrls.wrQLenPdf::37                    188                       # What write queue length does an incoming req see
system.mem_ctrls.wrQLenPdf::38                    130                       # What write queue length does an incoming req see
system.mem_ctrls.wrQLenPdf::39                     92                       # What write queue length does an incoming req see
system.mem_ctrls.wrQLenPdf::40                     61                       # What write queue length does an incoming req see
system.mem_ctrls.wrQLenPdf::41                     50                       # What write queue length does an incoming req see
system.mem_ctrls.wrQLenPdf::42                     52                       # What write queue length does an incoming req see
system.mem_ctrls.wrQLenPdf::43                     37                       # What write queue length does an incoming req see
system.mem_ctrls.wrQLenPdf::44                     23                       # What write queue length does an incoming req see
system.mem_ctrls.wrQLenPdf::45                     19                       # What write queue length does an incoming req see
system.mem_ctrls.wrQLenPdf::46                     21                       # What write queue length does an incoming req see
system.mem_ctrls.wrQLenPdf::47                     24                       # What write queue length does an incoming req see
system.mem_ctrls.wrQLenPdf::48                     19                       # What write queue length does an incoming req see
system.mem_ctrls.wrQLenPdf::49                     13                       # What write queue length does an incoming req see
system.mem_ctrls.wrQLenPdf::50                     11                       # What write queue length does an incoming req see
system.mem_ctrls.wrQLenPdf::51                     17                       # What write queue length does an incoming req see
system.mem_ctrls.wrQLenPdf::52                     10                       # What write queue length does an incoming req see
system.mem_ctrls.wrQLenPdf::53                      9                       # What write queue length does an incoming req see
system.mem_ctrls.wrQLenPdf::54                     10                       # What write queue length does an incoming req see
system.mem_ctrls.wrQLenPdf::55                      2                       # What write queue length does an incoming req see
system.mem_ctrls.wrQLenPdf::56                      4                       # What write queue length does an incoming req see
system.mem_ctrls.wrQLenPdf::57                      5                       # What write queue length does an incoming req see
system.mem_ctrls.wrQLenPdf::58                      1                       # What write queue length does an incoming req see
system.mem_ctrls.wrQLenPdf::59                      0                       # What write queue length does an incoming req see
system.mem_ctrls.wrQLenPdf::60                      0                       # What write queue length does an incoming req see
system.mem_ctrls.wrQLenPdf::61                      0                       # What write queue length does an incoming req see
system.mem_ctrls.wrQLenPdf::62                      0                       # What write queue length does an incoming req see
system.mem_ctrls.wrQLenPdf::63                      0                       # What write queue length does an incoming req see
system.mem_ctrls.bytesPerActivate::samples       138731                       # Bytes accessed per row activation
system.mem_ctrls.bytesPerActivate::mean    168.282388                       # Bytes accessed per row activation
system.mem_ctrls.bytesPerActivate::gmean   110.161275                       # Bytes accessed per row activation
system.mem_ctrls.bytesPerActivate::stdev   212.388673                       # Bytes accessed per row activation
system.mem_ctrls.bytesPerActivate::0-127        83444     60.15%     60.15% # Bytes accessed per row activation
system.mem_ctrls.bytesPerActivate::128-255        29320     21.13%     81.28% # Bytes accessed per row activation
system.mem_ctrls.bytesPerActivate::256-383        10303      7.43%     88.71% # Bytes accessed per row activation
system.mem_ctrls.bytesPerActivate::384-511         4481      3.23%     91.94% # Bytes accessed per row activation
system.mem_ctrls.bytesPerActivate::512-639         3060      2.21%     94.14% # Bytes accessed per row activation
system.mem_ctrls.bytesPerActivate::640-767         1905      1.37%     95.52% # Bytes accessed per row activation
system.mem_ctrls.bytesPerActivate::768-895         1235      0.89%     96.41% # Bytes accessed per row activation
system.mem_ctrls.bytesPerActivate::896-1023          977      0.70%     97.11% # Bytes accessed per row activation
system.mem_ctrls.bytesPerActivate::1024-1151         4006      2.89%    100.00% # Bytes accessed per row activation
system.mem_ctrls.bytesPerActivate::total       138731                       # Bytes accessed per row activation
system.mem_ctrls.rdPerTurnAround::samples         6939                       # Reads before turning the bus around for writes
system.mem_ctrls.rdPerTurnAround::mean      36.197291                       # Reads before turning the bus around for writes
system.mem_ctrls.rdPerTurnAround::gmean     29.342818                       # Reads before turning the bus around for writes
system.mem_ctrls.rdPerTurnAround::stdev    230.418161                       # Reads before turning the bus around for writes
system.mem_ctrls.rdPerTurnAround::0-1023         6938     99.99%     99.99% # Reads before turning the bus around for writes
system.mem_ctrls.rdPerTurnAround::18432-19455            1      0.01%    100.00% # Reads before turning the bus around for writes
system.mem_ctrls.rdPerTurnAround::total          6939                       # Reads before turning the bus around for writes
system.mem_ctrls.wrPerTurnAround::samples         6939                       # Writes before turning the bus around for reads
system.mem_ctrls.wrPerTurnAround::mean      16.371956                       # Writes before turning the bus around for reads
system.mem_ctrls.wrPerTurnAround::gmean     16.346217                       # Writes before turning the bus around for reads
system.mem_ctrls.wrPerTurnAround::stdev      0.969035                       # Writes before turning the bus around for reads
system.mem_ctrls.wrPerTurnAround::16             5876     84.68%     84.68% # Writes before turning the bus around for reads
system.mem_ctrls.wrPerTurnAround::17               78      1.12%     85.80% # Writes before turning the bus around for reads
system.mem_ctrls.wrPerTurnAround::18              666      9.60%     95.40% # Writes before turning the bus around for reads
system.mem_ctrls.wrPerTurnAround::19              202      2.91%     98.31% # Writes before turning the bus around for reads
system.mem_ctrls.wrPerTurnAround::20               63      0.91%     99.22% # Writes before turning the bus around for reads
system.mem_ctrls.wrPerTurnAround::21               31      0.45%     99.67% # Writes before turning the bus around for reads
system.mem_ctrls.wrPerTurnAround::22               13      0.19%     99.86% # Writes before turning the bus around for reads
system.mem_ctrls.wrPerTurnAround::23                6      0.09%     99.94% # Writes before turning the bus around for reads
system.mem_ctrls.wrPerTurnAround::24                2      0.03%     99.97% # Writes before turning the bus around for reads
system.mem_ctrls.wrPerTurnAround::27                2      0.03%    100.00% # Writes before turning the bus around for reads
system.mem_ctrls.wrPerTurnAround::total          6939                       # Writes before turning the bus around for reads
system.mem_ctrls.totQLat                  12862769487                       # Total ticks spent queuing
system.mem_ctrls.totMemAccLat             17572900737                       # Total ticks spent from burst creation until serviced by the DRAM
system.mem_ctrls.totBusLat                 1256035000                       # Total ticks spent in databus transfers
system.mem_ctrls.avgQLat                     51203.87                       # Average queueing delay per DRAM burst
system.mem_ctrls.avgBusLat                    5000.00                       # Average bus latency per DRAM burst
system.mem_ctrls.avgMemAccLat                69953.87                       # Average memory access latency per DRAM burst
system.mem_ctrls.avgRdBW                       350.64                       # Average DRAM read bandwidth in MiByte/s
system.mem_ctrls.avgWrBW                       158.57                       # Average achieved write bandwidth in MiByte/s
system.mem_ctrls.avgRdBWSys                    351.01                       # Average system read bandwidth in MiByte/s
system.mem_ctrls.avgWrBWSys                    158.61                       # Average system write bandwidth in MiByte/s
system.mem_ctrls.peakBW                      12800.00                       # Theoretical peak bandwidth in MiByte/s
system.mem_ctrls.busUtil                         3.98                       # Data bus utilization in percentage
system.mem_ctrls.busUtilRead                     2.74                       # Data bus utilization in percentage for reads
system.mem_ctrls.busUtilWrite                    1.24                       # Data bus utilization in percentage for writes
system.mem_ctrls.avgRdQLen                       1.83                       # Average read queue length when enqueuing
system.mem_ctrls.avgWrQLen                      24.64                       # Average write queue length when enqueuing
system.mem_ctrls.readRowHits                   187833                       # Number of row buffer hits during reads
system.mem_ctrls.writeRowHits                   38238                       # Number of row buffer hits during writes
system.mem_ctrls.readRowHitRate                 74.77                       # Row buffer hit rate for reads
system.mem_ctrls.writeRowHitRate                33.65                       # Row buffer hit rate for writes
system.mem_ctrls.avgGap                     125582.38                       # Average gap between requests
system.mem_ctrls.pageHitRate                    61.96                       # Row buffer hit rate, read and write combined
system.mem_ctrls.memoryStateTime::IDLE    23170477274                       # Time in different power states
system.mem_ctrls.memoryStateTime::REF      1530880000                       # Time in different power states
system.mem_ctrls.memoryStateTime::PRE_PDN            0                       # Time in different power states
system.mem_ctrls.memoryStateTime::ACT     21144501226                       # Time in different power states
system.mem_ctrls.memoryStateTime::ACT_PDN            0                       # Time in different power states
system.mem_ctrls.actEnergy::0               514911600                       # Energy for activate commands per rank (pJ)
system.mem_ctrls.actEnergy::1               533501640                       # Energy for activate commands per rank (pJ)
system.mem_ctrls.preEnergy::0               280953750                       # Energy for precharge commands per rank (pJ)
system.mem_ctrls.preEnergy::1               291097125                       # Energy for precharge commands per rank (pJ)
system.mem_ctrls.readEnergy::0              979032600                       # Energy for read commands per rank (pJ)
system.mem_ctrls.readEnergy::1              979235400                       # Energy for read commands per rank (pJ)
system.mem_ctrls.writeEnergy::0             360631440                       # Energy for write commands per rank (pJ)
system.mem_ctrls.writeEnergy::1             375321600                       # Energy for write commands per rank (pJ)
system.mem_ctrls.refreshEnergy::0          2994401280                       # Energy for refresh commands per rank (pJ)
system.mem_ctrls.refreshEnergy::1          2994401280                       # Energy for refresh commands per rank (pJ)
system.mem_ctrls.actBackEnergy::0         12813923475                       # Energy for active background per rank (pJ)
system.mem_ctrls.actBackEnergy::1         13172752440                       # Energy for active background per rank (pJ)
system.mem_ctrls.preBackEnergy::0         16267136250                       # Energy for precharge background per rank (pJ)
system.mem_ctrls.preBackEnergy::1         15952374000                       # Energy for precharge background per rank (pJ)
system.mem_ctrls.totalEnergy::0           34210990395                       # Total energy per rank (pJ)
system.mem_ctrls.totalEnergy::1           34298683485                       # Total energy per rank (pJ)
system.mem_ctrls.averagePower::0           746.220265                       # Core power per rank (mW)
system.mem_ctrls.averagePower::1           748.133053                       # Core power per rank (mW)
system.cpu_voltage_domain.voltage                   1                       # Voltage in Volts
system.cpu_clk_domain.clock                       500                       # Clock period in ticks
system.tol2bus.trans_dist::ReadReq             778402                       # Transaction distribution
system.tol2bus.trans_dist::ReadResp            778402                       # Transaction distribution
system.tol2bus.trans_dist::WriteReq               479                       # Transaction distribution
system.tol2bus.trans_dist::WriteResp              479                       # Transaction distribution
system.tol2bus.trans_dist::Writeback           267729                       # Transaction distribution
system.tol2bus.trans_dist::HardPFReq           319081                       # Transaction distribution
system.tol2bus.trans_dist::HardPFResp               2                       # Transaction distribution
system.tol2bus.trans_dist::UpgradeReq           12608                       # Transaction distribution
system.tol2bus.trans_dist::SCUpgradeReq          6638                       # Transaction distribution
system.tol2bus.trans_dist::UpgradeResp          19246                       # Transaction distribution
system.tol2bus.trans_dist::SCUpgradeFailReq           23                       # Transaction distribution
system.tol2bus.trans_dist::UpgradeFailResp           23                       # Transaction distribution
system.tol2bus.trans_dist::ReadExReq           122354                       # Transaction distribution
system.tol2bus.trans_dist::ReadExResp          122354                       # Transaction distribution
system.tol2bus.pkt_count_system.cpu0.icache.mem_side::system.l2.cpu_side       176927                       # Packet count per connected master and slave (bytes)
system.tol2bus.pkt_count_system.cpu0.dcache.mem_side::system.l2.cpu_side       409089                       # Packet count per connected master and slave (bytes)
system.tol2bus.pkt_count_system.cpu0.itb.walker.dma::system.l2.cpu_side         6892                       # Packet count per connected master and slave (bytes)
system.tol2bus.pkt_count_system.cpu0.dtb.walker.dma::system.l2.cpu_side        42335                       # Packet count per connected master and slave (bytes)
system.tol2bus.pkt_count_system.cpu1.icache.mem_side::system.l2.cpu_side       396149                       # Packet count per connected master and slave (bytes)
system.tol2bus.pkt_count_system.cpu1.dcache.mem_side::system.l2.cpu_side       416243                       # Packet count per connected master and slave (bytes)
system.tol2bus.pkt_count_system.cpu1.itb.walker.dma::system.l2.cpu_side        15758                       # Packet count per connected master and slave (bytes)
system.tol2bus.pkt_count_system.cpu1.dtb.walker.dma::system.l2.cpu_side        58593                       # Packet count per connected master and slave (bytes)
system.tol2bus.pkt_count_system.cpu2.icache.mem_side::system.l2.cpu_side        83452                       # Packet count per connected master and slave (bytes)
system.tol2bus.pkt_count_system.cpu2.dcache.mem_side::system.l2.cpu_side       175525                       # Packet count per connected master and slave (bytes)
system.tol2bus.pkt_count_system.cpu2.itb.walker.dma::system.l2.cpu_side         4983                       # Packet count per connected master and slave (bytes)
system.tol2bus.pkt_count_system.cpu2.dtb.walker.dma::system.l2.cpu_side        21387                       # Packet count per connected master and slave (bytes)
system.tol2bus.pkt_count_system.cpu3.icache.mem_side::system.l2.cpu_side        75596                       # Packet count per connected master and slave (bytes)
system.tol2bus.pkt_count_system.cpu3.dcache.mem_side::system.l2.cpu_side       119647                       # Packet count per connected master and slave (bytes)
system.tol2bus.pkt_count_system.cpu3.itb.walker.dma::system.l2.cpu_side         5927                       # Packet count per connected master and slave (bytes)
system.tol2bus.pkt_count_system.cpu3.dtb.walker.dma::system.l2.cpu_side        22418                       # Packet count per connected master and slave (bytes)
system.tol2bus.pkt_count::total               2030921                       # Packet count per connected master and slave (bytes)
system.tol2bus.pkt_size_system.cpu0.icache.mem_side::system.l2.cpu_side      5661632                       # Cumulative packet size per connected master and slave (bytes)
system.tol2bus.pkt_size_system.cpu0.dcache.mem_side::system.l2.cpu_side     16196128                       # Cumulative packet size per connected master and slave (bytes)
system.tol2bus.pkt_size_system.cpu0.itb.walker.dma::system.l2.cpu_side         8912                       # Cumulative packet size per connected master and slave (bytes)
system.tol2bus.pkt_size_system.cpu0.dtb.walker.dma::system.l2.cpu_side        71584                       # Cumulative packet size per connected master and slave (bytes)
system.tol2bus.pkt_size_system.cpu1.icache.mem_side::system.l2.cpu_side     12676736                       # Cumulative packet size per connected master and slave (bytes)
system.tol2bus.pkt_size_system.cpu1.dcache.mem_side::system.l2.cpu_side     15569388                       # Cumulative packet size per connected master and slave (bytes)
system.tol2bus.pkt_size_system.cpu1.itb.walker.dma::system.l2.cpu_side        21860                       # Cumulative packet size per connected master and slave (bytes)
system.tol2bus.pkt_size_system.cpu1.dtb.walker.dma::system.l2.cpu_side        91100                       # Cumulative packet size per connected master and slave (bytes)
system.tol2bus.pkt_size_system.cpu2.icache.mem_side::system.l2.cpu_side      2670464                       # Cumulative packet size per connected master and slave (bytes)
system.tol2bus.pkt_size_system.cpu2.dcache.mem_side::system.l2.cpu_side      6441572                       # Cumulative packet size per connected master and slave (bytes)
system.tol2bus.pkt_size_system.cpu2.itb.walker.dma::system.l2.cpu_side         6380                       # Cumulative packet size per connected master and slave (bytes)
system.tol2bus.pkt_size_system.cpu2.dtb.walker.dma::system.l2.cpu_side        36444                       # Cumulative packet size per connected master and slave (bytes)
system.tol2bus.pkt_size_system.cpu3.icache.mem_side::system.l2.cpu_side      2419072                       # Cumulative packet size per connected master and slave (bytes)
system.tol2bus.pkt_size_system.cpu3.dcache.mem_side::system.l2.cpu_side      4323148                       # Cumulative packet size per connected master and slave (bytes)
system.tol2bus.pkt_size_system.cpu3.itb.walker.dma::system.l2.cpu_side         7608                       # Cumulative packet size per connected master and slave (bytes)
system.tol2bus.pkt_size_system.cpu3.dtb.walker.dma::system.l2.cpu_side        38024                       # Cumulative packet size per connected master and slave (bytes)
system.tol2bus.pkt_size::total               66240052                       # Cumulative packet size per connected master and slave (bytes)
system.tol2bus.snoops                          396901                       # Total snoops (count)
system.tol2bus.snoop_fanout::samples          1513160                       # Request fanout histogram
system.tol2bus.snoop_fanout::mean           23.210871                       # Request fanout histogram
system.tol2bus.snoop_fanout::stdev           0.407927                       # Request fanout histogram
system.tol2bus.snoop_fanout::underflows             0      0.00%      0.00% # Request fanout histogram
system.tol2bus.snoop_fanout::0                      0      0.00%      0.00% # Request fanout histogram
system.tol2bus.snoop_fanout::1                      0      0.00%      0.00% # Request fanout histogram
system.tol2bus.snoop_fanout::2                      0      0.00%      0.00% # Request fanout histogram
system.tol2bus.snoop_fanout::3                      0      0.00%      0.00% # Request fanout histogram
system.tol2bus.snoop_fanout::4                      0      0.00%      0.00% # Request fanout histogram
system.tol2bus.snoop_fanout::5                      0      0.00%      0.00% # Request fanout histogram
system.tol2bus.snoop_fanout::6                      0      0.00%      0.00% # Request fanout histogram
system.tol2bus.snoop_fanout::7                      0      0.00%      0.00% # Request fanout histogram
system.tol2bus.snoop_fanout::8                      0      0.00%      0.00% # Request fanout histogram
system.tol2bus.snoop_fanout::9                      0      0.00%      0.00% # Request fanout histogram
system.tol2bus.snoop_fanout::10                     0      0.00%      0.00% # Request fanout histogram
system.tol2bus.snoop_fanout::11                     0      0.00%      0.00% # Request fanout histogram
system.tol2bus.snoop_fanout::12                     0      0.00%      0.00% # Request fanout histogram
system.tol2bus.snoop_fanout::13                     0      0.00%      0.00% # Request fanout histogram
system.tol2bus.snoop_fanout::14                     0      0.00%      0.00% # Request fanout histogram
system.tol2bus.snoop_fanout::15                     0      0.00%      0.00% # Request fanout histogram
system.tol2bus.snoop_fanout::16                     0      0.00%      0.00% # Request fanout histogram
system.tol2bus.snoop_fanout::17                     0      0.00%      0.00% # Request fanout histogram
system.tol2bus.snoop_fanout::18                     0      0.00%      0.00% # Request fanout histogram
system.tol2bus.snoop_fanout::19                     0      0.00%      0.00% # Request fanout histogram
system.tol2bus.snoop_fanout::20                     0      0.00%      0.00% # Request fanout histogram
system.tol2bus.snoop_fanout::21                     0      0.00%      0.00% # Request fanout histogram
system.tol2bus.snoop_fanout::22                     0      0.00%      0.00% # Request fanout histogram
system.tol2bus.snoop_fanout::23               1194079     78.91%     78.91% # Request fanout histogram
system.tol2bus.snoop_fanout::24                319081     21.09%    100.00% # Request fanout histogram
system.tol2bus.snoop_fanout::overflows              0      0.00%    100.00% # Request fanout histogram
system.tol2bus.snoop_fanout::min_value             23                       # Request fanout histogram
system.tol2bus.snoop_fanout::max_value             24                       # Request fanout histogram
system.tol2bus.snoop_fanout::total            1513160                       # Request fanout histogram
system.tol2bus.reqLayer0.occupancy          869600293                       # Layer occupancy (ticks)
system.tol2bus.reqLayer0.utilization              1.9                       # Layer utilization (%)
system.tol2bus.snoopLayer0.occupancy             3000                       # Layer occupancy (ticks)
system.tol2bus.snoopLayer0.utilization            0.0                       # Layer utilization (%)
system.tol2bus.respLayer0.occupancy         133075261                       # Layer occupancy (ticks)
system.tol2bus.respLayer0.utilization             0.3                       # Layer utilization (%)
system.tol2bus.respLayer1.occupancy         229529079                       # Layer occupancy (ticks)
system.tol2bus.respLayer1.utilization             0.5                       # Layer utilization (%)
system.tol2bus.respLayer2.occupancy           4673988                       # Layer occupancy (ticks)
system.tol2bus.respLayer2.utilization             0.0                       # Layer utilization (%)
system.tol2bus.respLayer3.occupancy          24532114                       # Layer occupancy (ticks)
system.tol2bus.respLayer3.utilization             0.1                       # Layer utilization (%)
system.tol2bus.respLayer6.occupancy         298101309                       # Layer occupancy (ticks)
system.tol2bus.respLayer6.utilization             0.7                       # Layer utilization (%)
system.tol2bus.respLayer7.occupancy         249897488                       # Layer occupancy (ticks)
system.tol2bus.respLayer7.utilization             0.5                       # Layer utilization (%)
system.tol2bus.respLayer8.occupancy          10320728                       # Layer occupancy (ticks)
system.tol2bus.respLayer8.utilization             0.0                       # Layer utilization (%)
system.tol2bus.respLayer9.occupancy          35891904                       # Layer occupancy (ticks)
system.tol2bus.respLayer9.utilization             0.1                       # Layer utilization (%)
system.tol2bus.respLayer12.occupancy         62858066                       # Layer occupancy (ticks)
system.tol2bus.respLayer12.utilization            0.1                       # Layer utilization (%)
system.tol2bus.respLayer13.occupancy        105649861                       # Layer occupancy (ticks)
system.tol2bus.respLayer13.utilization            0.2                       # Layer utilization (%)
system.tol2bus.respLayer14.occupancy          3401235                       # Layer occupancy (ticks)
system.tol2bus.respLayer14.utilization            0.0                       # Layer utilization (%)
system.tol2bus.respLayer15.occupancy         12335650                       # Layer occupancy (ticks)
system.tol2bus.respLayer15.utilization            0.0                       # Layer utilization (%)
system.tol2bus.respLayer18.occupancy         56963304                       # Layer occupancy (ticks)
system.tol2bus.respLayer18.utilization            0.1                       # Layer utilization (%)
system.tol2bus.respLayer19.occupancy         72595197                       # Layer occupancy (ticks)
system.tol2bus.respLayer19.utilization            0.2                       # Layer utilization (%)
system.tol2bus.respLayer20.occupancy          4040484                       # Layer occupancy (ticks)
system.tol2bus.respLayer20.utilization            0.0                       # Layer utilization (%)
system.tol2bus.respLayer21.occupancy         12963663                       # Layer occupancy (ticks)
system.tol2bus.respLayer21.utilization            0.0                       # Layer utilization (%)
system.membus.trans_dist::ReadReq              241384                       # Transaction distribution
system.membus.trans_dist::ReadResp             241377                       # Transaction distribution
system.membus.trans_dist::WriteReq                479                       # Transaction distribution
system.membus.trans_dist::WriteResp               479                       # Transaction distribution
system.membus.trans_dist::Writeback            113635                       # Transaction distribution
system.membus.trans_dist::UpgradeReq            13256                       # Transaction distribution
system.membus.trans_dist::SCUpgradeReq           6350                       # Transaction distribution
system.membus.trans_dist::UpgradeResp            8316                       # Transaction distribution
system.membus.trans_dist::ReadExReq             12388                       # Transaction distribution
system.membus.trans_dist::ReadExResp            11094                       # Transaction distribution
system.membus.pkt_count_system.l2.mem_side::system.bridge.slave         1904                       # Packet count per connected master and slave (bytes)
system.membus.pkt_count_system.l2.mem_side::system.realview.gic.pio         1036                       # Packet count per connected master and slave (bytes)
system.membus.pkt_count_system.l2.mem_side::system.mem_ctrls.port       645818                       # Packet count per connected master and slave (bytes)
system.membus.pkt_count_system.l2.mem_side::total       648758                       # Packet count per connected master and slave (bytes)
system.membus.pkt_count::total                 648758                       # Packet count per connected master and slave (bytes)
system.membus.pkt_size_system.l2.mem_side::system.bridge.slave         3236                       # Cumulative packet size per connected master and slave (bytes)
system.membus.pkt_size_system.l2.mem_side::system.realview.gic.pio         2072                       # Cumulative packet size per connected master and slave (bytes)
system.membus.pkt_size_system.l2.mem_side::system.mem_ctrls.port     23367360                       # Cumulative packet size per connected master and slave (bytes)
system.membus.pkt_size_system.l2.mem_side::total     23372668                       # Cumulative packet size per connected master and slave (bytes)
system.membus.pkt_size::total                23372668                       # Cumulative packet size per connected master and slave (bytes)
system.membus.snoops                            12584                       # Total snoops (count)
system.membus.snoop_fanout::samples            386022                       # Request fanout histogram
system.membus.snoop_fanout::mean                    1                       # Request fanout histogram
system.membus.snoop_fanout::stdev                   0                       # Request fanout histogram
system.membus.snoop_fanout::underflows              0      0.00%      0.00% # Request fanout histogram
system.membus.snoop_fanout::0                       0      0.00%      0.00% # Request fanout histogram
system.membus.snoop_fanout::1                  386022    100.00%    100.00% # Request fanout histogram
system.membus.snoop_fanout::2                       0      0.00%    100.00% # Request fanout histogram
system.membus.snoop_fanout::overflows               0      0.00%    100.00% # Request fanout histogram
system.membus.snoop_fanout::min_value               1                       # Request fanout histogram
system.membus.snoop_fanout::max_value               1                       # Request fanout histogram
system.membus.snoop_fanout::total              386022                       # Request fanout histogram
system.membus.reqLayer0.occupancy             1393485                       # Layer occupancy (ticks)
system.membus.reqLayer0.utilization               0.0                       # Layer utilization (%)
system.membus.reqLayer2.occupancy              884992                       # Layer occupancy (ticks)
system.membus.reqLayer2.utilization               0.0                       # Layer utilization (%)
system.membus.reqLayer5.occupancy          1336609422                       # Layer occupancy (ticks)
system.membus.reqLayer5.utilization               2.9                       # Layer utilization (%)
system.membus.respLayer3.occupancy         2320540579                       # Layer occupancy (ticks)
system.membus.respLayer3.utilization              5.1                       # Layer utilization (%)
system.switch_cpus0.branchPred.lookups       24972972                       # Number of BP lookups
system.switch_cpus0.branchPred.condPredicted     16038994                       # Number of conditional branches predicted
system.switch_cpus0.branchPred.condIncorrect       834347                       # Number of conditional branches incorrect
system.switch_cpus0.branchPred.BTBLookups     10968681                       # Number of BTB lookups
system.switch_cpus0.branchPred.BTBHits        9348083                       # Number of BTB hits
system.switch_cpus0.branchPred.BTBCorrect            0                       # Number of correct BTB predictions (this stat may not work properly.
system.switch_cpus0.branchPred.BTBHitPct    85.225224                       # BTB Hit Percentage
system.switch_cpus0.branchPred.usedRAS        3844075                       # Number of times the RAS was used to get a target.
system.switch_cpus0.branchPred.RASInCorrect       104400                       # Number of incorrect RAS predictions.
system.switch_cpus0.dstage2_mmu.stage2_tlb.inst_hits            0                       # ITB inst hits
system.switch_cpus0.dstage2_mmu.stage2_tlb.inst_misses            0                       # ITB inst misses
system.switch_cpus0.dstage2_mmu.stage2_tlb.read_hits            0                       # DTB read hits
system.switch_cpus0.dstage2_mmu.stage2_tlb.read_misses            0                       # DTB read misses
system.switch_cpus0.dstage2_mmu.stage2_tlb.write_hits            0                       # DTB write hits
system.switch_cpus0.dstage2_mmu.stage2_tlb.write_misses            0                       # DTB write misses
system.switch_cpus0.dstage2_mmu.stage2_tlb.flush_tlb            0                       # Number of times complete TLB was flushed
system.switch_cpus0.dstage2_mmu.stage2_tlb.flush_tlb_mva            0                       # Number of times TLB was flushed by MVA
system.switch_cpus0.dstage2_mmu.stage2_tlb.flush_tlb_mva_asid            0                       # Number of times TLB was flushed by MVA & ASID
system.switch_cpus0.dstage2_mmu.stage2_tlb.flush_tlb_asid            0                       # Number of times TLB was flushed by ASID
system.switch_cpus0.dstage2_mmu.stage2_tlb.flush_entries            0                       # Number of entries that have been flushed from TLB
system.switch_cpus0.dstage2_mmu.stage2_tlb.align_faults            0                       # Number of TLB faults due to alignment restrictions
system.switch_cpus0.dstage2_mmu.stage2_tlb.prefetch_faults            0                       # Number of TLB faults due to prefetch
system.switch_cpus0.dstage2_mmu.stage2_tlb.domain_faults            0                       # Number of TLB faults due to domain restrictions
system.switch_cpus0.dstage2_mmu.stage2_tlb.perms_faults            0                       # Number of TLB faults due to permissions restrictions
system.switch_cpus0.dstage2_mmu.stage2_tlb.read_accesses            0                       # DTB read accesses
system.switch_cpus0.dstage2_mmu.stage2_tlb.write_accesses            0                       # DTB write accesses
system.switch_cpus0.dstage2_mmu.stage2_tlb.inst_accesses            0                       # ITB inst accesses
system.switch_cpus0.dstage2_mmu.stage2_tlb.hits            0                       # DTB hits
system.switch_cpus0.dstage2_mmu.stage2_tlb.misses            0                       # DTB misses
system.switch_cpus0.dstage2_mmu.stage2_tlb.accesses            0                       # DTB accesses
system.switch_cpus0.dtb.inst_hits                   0                       # ITB inst hits
system.switch_cpus0.dtb.inst_misses                 0                       # ITB inst misses
system.switch_cpus0.dtb.read_hits            10091641                       # DTB read hits
system.switch_cpus0.dtb.read_misses             17718                       # DTB read misses
system.switch_cpus0.dtb.write_hits            5770268                       # DTB write hits
system.switch_cpus0.dtb.write_misses             5703                       # DTB write misses
system.switch_cpus0.dtb.flush_tlb                   4                       # Number of times complete TLB was flushed
system.switch_cpus0.dtb.flush_tlb_mva               0                       # Number of times TLB was flushed by MVA
system.switch_cpus0.dtb.flush_tlb_mva_asid         7394                       # Number of times TLB was flushed by MVA & ASID
system.switch_cpus0.dtb.flush_tlb_asid            105                       # Number of times TLB was flushed by ASID
system.switch_cpus0.dtb.flush_entries            1002                       # Number of entries that have been flushed from TLB
system.switch_cpus0.dtb.align_faults               60                       # Number of TLB faults due to alignment restrictions
system.switch_cpus0.dtb.prefetch_faults           454                       # Number of TLB faults due to prefetch
system.switch_cpus0.dtb.domain_faults               0                       # Number of TLB faults due to domain restrictions
system.switch_cpus0.dtb.perms_faults              289                       # Number of TLB faults due to permissions restrictions
system.switch_cpus0.dtb.read_accesses        10109359                       # DTB read accesses
system.switch_cpus0.dtb.write_accesses        5775971                       # DTB write accesses
system.switch_cpus0.dtb.inst_accesses               0                       # ITB inst accesses
system.switch_cpus0.dtb.hits                 15861909                       # DTB hits
system.switch_cpus0.dtb.misses                  23421                       # DTB misses
system.switch_cpus0.dtb.accesses             15885330                       # DTB accesses
system.switch_cpus0.istage2_mmu.stage2_tlb.inst_hits            0                       # ITB inst hits
system.switch_cpus0.istage2_mmu.stage2_tlb.inst_misses            0                       # ITB inst misses
system.switch_cpus0.istage2_mmu.stage2_tlb.read_hits            0                       # DTB read hits
system.switch_cpus0.istage2_mmu.stage2_tlb.read_misses            0                       # DTB read misses
system.switch_cpus0.istage2_mmu.stage2_tlb.write_hits            0                       # DTB write hits
system.switch_cpus0.istage2_mmu.stage2_tlb.write_misses            0                       # DTB write misses
system.switch_cpus0.istage2_mmu.stage2_tlb.flush_tlb            0                       # Number of times complete TLB was flushed
system.switch_cpus0.istage2_mmu.stage2_tlb.flush_tlb_mva            0                       # Number of times TLB was flushed by MVA
system.switch_cpus0.istage2_mmu.stage2_tlb.flush_tlb_mva_asid            0                       # Number of times TLB was flushed by MVA & ASID
system.switch_cpus0.istage2_mmu.stage2_tlb.flush_tlb_asid            0                       # Number of times TLB was flushed by ASID
system.switch_cpus0.istage2_mmu.stage2_tlb.flush_entries            0                       # Number of entries that have been flushed from TLB
system.switch_cpus0.istage2_mmu.stage2_tlb.align_faults            0                       # Number of TLB faults due to alignment restrictions
system.switch_cpus0.istage2_mmu.stage2_tlb.prefetch_faults            0                       # Number of TLB faults due to prefetch
system.switch_cpus0.istage2_mmu.stage2_tlb.domain_faults            0                       # Number of TLB faults due to domain restrictions
system.switch_cpus0.istage2_mmu.stage2_tlb.perms_faults            0                       # Number of TLB faults due to permissions restrictions
system.switch_cpus0.istage2_mmu.stage2_tlb.read_accesses            0                       # DTB read accesses
system.switch_cpus0.istage2_mmu.stage2_tlb.write_accesses            0                       # DTB write accesses
system.switch_cpus0.istage2_mmu.stage2_tlb.inst_accesses            0                       # ITB inst accesses
system.switch_cpus0.istage2_mmu.stage2_tlb.hits            0                       # DTB hits
system.switch_cpus0.istage2_mmu.stage2_tlb.misses            0                       # DTB misses
system.switch_cpus0.istage2_mmu.stage2_tlb.accesses            0                       # DTB accesses
system.switch_cpus0.itb.inst_hits            47163641                       # ITB inst hits
system.switch_cpus0.itb.inst_misses              2399                       # ITB inst misses
system.switch_cpus0.itb.read_hits                   0                       # DTB read hits
system.switch_cpus0.itb.read_misses                 0                       # DTB read misses
system.switch_cpus0.itb.write_hits                  0                       # DTB write hits
system.switch_cpus0.itb.write_misses                0                       # DTB write misses
system.switch_cpus0.itb.flush_tlb                   4                       # Number of times complete TLB was flushed
system.switch_cpus0.itb.flush_tlb_mva               0                       # Number of times TLB was flushed by MVA
system.switch_cpus0.itb.flush_tlb_mva_asid         7394                       # Number of times TLB was flushed by MVA & ASID
system.switch_cpus0.itb.flush_tlb_asid            105                       # Number of times TLB was flushed by ASID
system.switch_cpus0.itb.flush_entries             695                       # Number of entries that have been flushed from TLB
system.switch_cpus0.itb.align_faults                0                       # Number of TLB faults due to alignment restrictions
system.switch_cpus0.itb.prefetch_faults             0                       # Number of TLB faults due to prefetch
system.switch_cpus0.itb.domain_faults               0                       # Number of TLB faults due to domain restrictions
system.switch_cpus0.itb.perms_faults             2172                       # Number of TLB faults due to permissions restrictions
system.switch_cpus0.itb.read_accesses               0                       # DTB read accesses
system.switch_cpus0.itb.write_accesses              0                       # DTB write accesses
system.switch_cpus0.itb.inst_accesses        47166040                       # ITB inst accesses
system.switch_cpus0.itb.hits                 47163641                       # DTB hits
system.switch_cpus0.itb.misses                   2399                       # DTB misses
system.switch_cpus0.itb.accesses             47166040                       # DTB accesses
system.switch_cpus0.numCycles                87273461                       # number of cpu cycles simulated
system.switch_cpus0.numWorkItemsStarted             0                       # number of work items this cpu started
system.switch_cpus0.numWorkItemsCompleted            0                       # number of work items this cpu completed
system.switch_cpus0.fetch.icacheStallCycles      1994834                       # Number of cycles fetch is stalled on an Icache miss
system.switch_cpus0.fetch.Insts             143134373                       # Number of instructions fetch has processed
system.switch_cpus0.fetch.Branches           24972972                       # Number of branches that fetch encountered
system.switch_cpus0.fetch.predictedBranches     13192158                       # Number of branches that fetch has predicted taken
system.switch_cpus0.fetch.Cycles             83518545                       # Number of cycles fetch has run and was not squashing or blocked
system.switch_cpus0.fetch.SquashCycles        1732388                       # Number of cycles fetch has spent squashing
system.switch_cpus0.fetch.TlbCycles             28955                       # Number of cycles fetch has spent waiting for tlb
system.switch_cpus0.fetch.MiscStallCycles         2604                       # Number of cycles fetch has spent waiting on interrupts, or bad addresses, or out of MSHRs
system.switch_cpus0.fetch.PendingTrapStallCycles        80062                       # Number of stall cycles due to pending traps
system.switch_cpus0.fetch.PendingQuiesceStallCycles       396380                       # Number of stall cycles due to pending quiesce instructions
system.switch_cpus0.fetch.IcacheWaitRetryStallCycles         5383                       # Number of stall cycles due to full MSHR
system.switch_cpus0.fetch.CacheLines         47161371                       # Number of cache lines fetched
system.switch_cpus0.fetch.IcacheSquashes        24136                       # Number of outstanding Icache misses that were squashed
system.switch_cpus0.fetch.ItlbSquashes            506                       # Number of outstanding ITLB misses that were squashed
system.switch_cpus0.fetch.rateDist::samples     86892957                       # Number of instructions fetched each cycle (Total)
system.switch_cpus0.fetch.rateDist::mean     1.751564                       # Number of instructions fetched each cycle (Total)
system.switch_cpus0.fetch.rateDist::stdev     1.125248                       # Number of instructions fetched each cycle (Total)
system.switch_cpus0.fetch.rateDist::underflows            0      0.00%      0.00% # Number of instructions fetched each cycle (Total)
system.switch_cpus0.fetch.rateDist::0        11671538     13.43%     13.43% # Number of instructions fetched each cycle (Total)
system.switch_cpus0.fetch.rateDist::1        33471825     38.52%     51.95% # Number of instructions fetched each cycle (Total)
system.switch_cpus0.fetch.rateDist::2         6522027      7.51%     59.46% # Number of instructions fetched each cycle (Total)
system.switch_cpus0.fetch.rateDist::3        35227567     40.54%    100.00% # Number of instructions fetched each cycle (Total)
system.switch_cpus0.fetch.rateDist::overflows            0      0.00%    100.00% # Number of instructions fetched each cycle (Total)
system.switch_cpus0.fetch.rateDist::min_value            0                       # Number of instructions fetched each cycle (Total)
system.switch_cpus0.fetch.rateDist::max_value            3                       # Number of instructions fetched each cycle (Total)
system.switch_cpus0.fetch.rateDist::total     86892957                       # Number of instructions fetched each cycle (Total)
system.switch_cpus0.fetch.branchRate         0.286146                       # Number of branch fetches per cycle
system.switch_cpus0.fetch.rate               1.640068                       # Number of inst fetches per cycle
system.switch_cpus0.decode.IdleCycles         7152657                       # Number of cycles decode is idle
system.switch_cpus0.decode.BlockedCycles     17236063                       # Number of cycles decode is blocked
system.switch_cpus0.decode.RunCycles         55867181                       # Number of cycles decode is running
system.switch_cpus0.decode.UnblockCycles      5798722                       # Number of cycles decode is unblocking
system.switch_cpus0.decode.SquashCycles        838329                       # Number of cycles decode is squashing
system.switch_cpus0.decode.BranchResolved      4333686                       # Number of times decode resolved a branch
system.switch_cpus0.decode.BranchMispred        32694                       # Number of times decode detected a branch misprediction
system.switch_cpus0.decode.DecodedInsts     140980135                       # Number of instructions handled by decode
system.switch_cpus0.decode.SquashedInsts      3594361                       # Number of squashed instructions handled by decode
system.switch_cpus0.rename.SquashCycles        838329                       # Number of cycles rename is squashing
system.switch_cpus0.rename.IdleCycles        12449862                       # Number of cycles rename is idle
system.switch_cpus0.rename.BlockCycles        6317876                       # Number of cycles rename is blocking
[...]
system.cpu3.dcache.SoftPFReq_accesses::switch_cpus3.data         8216                       # number of SoftPFReq accesses(hits+misses)
system.cpu3.dcache.SoftPFReq_accesses::total         8216                       # number of SoftPFReq accesses(hits+misses)
system.cpu3.dcache.LoadLockedReq_accesses::switch_cpus3.data        48301                       # number of LoadLockedReq accesses(hits+misses)
system.cpu3.dcache.LoadLockedReq_accesses::total        48301                       # number of LoadLockedReq accesses(hits+misses)
system.cpu3.dcache.StoreCondReq_accesses::switch_cpus3.data        47988                       # number of StoreCondReq accesses(hits+misses)
system.cpu3.dcache.StoreCondReq_accesses::total        47988                       # number of StoreCondReq accesses(hits+misses)
system.cpu3.dcache.demand_accesses::switch_cpus3.data      8650468                       # number of demand (read+write) accesses
system.cpu3.dcache.demand_accesses::total      8650468                       # number of demand (read+write) accesses
system.cpu3.dcache.overall_accesses::switch_cpus3.data      8658684                       # number of overall (read+write) accesses
system.cpu3.dcache.overall_accesses::total      8658684                       # number of overall (read+write) accesses
system.cpu3.dcache.ReadReq_miss_rate::switch_cpus3.data     0.006894                       # miss rate for ReadReq accesses
system.cpu3.dcache.ReadReq_miss_rate::total     0.006894                       # miss rate for ReadReq accesses
system.cpu3.dcache.WriteReq_miss_rate::switch_cpus3.data     0.026516                       # miss rate for WriteReq accesses
system.cpu3.dcache.WriteReq_miss_rate::total     0.026516                       # miss rate for WriteReq accesses
system.cpu3.dcache.SoftPFReq_miss_rate::switch_cpus3.data     0.791261                       # miss rate for SoftPFReq accesses
system.cpu3.dcache.SoftPFReq_miss_rate::total     0.791261                       # miss rate for SoftPFReq accesses
system.cpu3.dcache.LoadLockedReq_miss_rate::switch_cpus3.data     0.024451                       # miss rate for LoadLockedReq accesses
system.cpu3.dcache.LoadLockedReq_miss_rate::total     0.024451                       # miss rate for LoadLockedReq accesses
system.cpu3.dcache.StoreCondReq_miss_rate::switch_cpus3.data     0.029049                       # miss rate for StoreCondReq accesses
system.cpu3.dcache.StoreCondReq_miss_rate::total     0.029049                       # miss rate for StoreCondReq accesses
system.cpu3.dcache.demand_miss_rate::switch_cpus3.data     0.014128                       # miss rate for demand accesses
system.cpu3.dcache.demand_miss_rate::total     0.014128                       # miss rate for demand accesses
system.cpu3.dcache.overall_miss_rate::switch_cpus3.data     0.014865                       # miss rate for overall accesses
system.cpu3.dcache.overall_miss_rate::total     0.014865                       # miss rate for overall accesses
system.cpu3.dcache.ReadReq_avg_miss_latency::switch_cpus3.data 28479.006773                       # average ReadReq miss latency
system.cpu3.dcache.ReadReq_avg_miss_latency::total 28479.006773                       # average ReadReq miss latency
system.cpu3.dcache.WriteReq_avg_miss_latency::switch_cpus3.data 16615.400017                       # average WriteReq miss latency
system.cpu3.dcache.WriteReq_avg_miss_latency::total 16615.400017                       # average WriteReq miss latency
system.cpu3.dcache.LoadLockedReq_avg_miss_latency::switch_cpus3.data 19168.069433                       # average LoadLockedReq miss latency
system.cpu3.dcache.LoadLockedReq_avg_miss_latency::total 19168.069433                       # average LoadLockedReq miss latency
system.cpu3.dcache.StoreCondReq_avg_miss_latency::switch_cpus3.data  5348.327116                       # average StoreCondReq miss latency
system.cpu3.dcache.StoreCondReq_avg_miss_latency::total  5348.327116                       # average StoreCondReq miss latency
system.cpu3.dcache.StoreCondFailReq_avg_miss_latency::switch_cpus3.data          inf                       # average StoreCondFailReq miss latency
system.cpu3.dcache.StoreCondFailReq_avg_miss_latency::total          inf                       # average StoreCondFailReq miss latency
system.cpu3.dcache.demand_avg_miss_latency::switch_cpus3.data 20270.176019                       # average overall miss latency
system.cpu3.dcache.demand_avg_miss_latency::total 20270.176019                       # average overall miss latency
system.cpu3.dcache.overall_avg_miss_latency::switch_cpus3.data 19246.391578                       # average overall miss latency
system.cpu3.dcache.overall_avg_miss_latency::total 19246.391578                       # average overall miss latency
system.cpu3.dcache.blocked_cycles::no_mshrs        15209                       # number of cycles access was blocked
system.cpu3.dcache.blocked_cycles::no_targets       196690                       # number of cycles access was blocked
system.cpu3.dcache.blocked::no_mshrs              334                       # number of cycles access was blocked
system.cpu3.dcache.blocked::no_targets           8826                       # number of cycles access was blocked
system.cpu3.dcache.avg_blocked_cycles::no_mshrs    45.535928                       # average number of cycles each access was blocked
system.cpu3.dcache.avg_blocked_cycles::no_targets    22.285293                       # average number of cycles each access was blocked
system.cpu3.dcache.fast_writes                      0                       # number of fast writes performed
system.cpu3.dcache.cache_copies                     0                       # number of cache copies performed
system.cpu3.dcache.writebacks::writebacks        26707                       # number of writebacks
system.cpu3.dcache.writebacks::total            26707                       # number of writebacks
system.cpu3.dcache.ReadReq_mshr_hits::switch_cpus3.data        13393                       # number of ReadReq MSHR hits
system.cpu3.dcache.ReadReq_mshr_hits::total        13393                       # number of ReadReq MSHR hits
system.cpu3.dcache.WriteReq_mshr_hits::switch_cpus3.data        67224                       # number of WriteReq MSHR hits
system.cpu3.dcache.WriteReq_mshr_hits::total        67224                       # number of WriteReq MSHR hits
system.cpu3.dcache.LoadLockedReq_mshr_hits::switch_cpus3.data          150                       # number of LoadLockedReq MSHR hits
system.cpu3.dcache.LoadLockedReq_mshr_hits::total          150                       # number of LoadLockedReq MSHR hits
system.cpu3.dcache.demand_mshr_hits::switch_cpus3.data        80617                       # number of demand (read+write) MSHR hits
system.cpu3.dcache.demand_mshr_hits::total        80617                       # number of demand (read+write) MSHR hits
system.cpu3.dcache.overall_mshr_hits::switch_cpus3.data        80617                       # number of overall MSHR hits
system.cpu3.dcache.overall_mshr_hits::total        80617                       # number of overall MSHR hits
system.cpu3.dcache.ReadReq_mshr_misses::switch_cpus3.data        24257                       # number of ReadReq MSHR misses
system.cpu3.dcache.ReadReq_mshr_misses::total        24257                       # number of ReadReq MSHR misses
system.cpu3.dcache.WriteReq_mshr_misses::switch_cpus3.data        17340                       # number of WriteReq MSHR misses
system.cpu3.dcache.WriteReq_mshr_misses::total        17340                       # number of WriteReq MSHR misses
system.cpu3.dcache.SoftPFReq_mshr_misses::switch_cpus3.data         6171                       # number of SoftPFReq MSHR misses
system.cpu3.dcache.SoftPFReq_mshr_misses::total         6171                       # number of SoftPFReq MSHR misses
system.cpu3.dcache.LoadLockedReq_mshr_misses::switch_cpus3.data         1031                       # number of LoadLockedReq MSHR misses
system.cpu3.dcache.LoadLockedReq_mshr_misses::total         1031                       # number of LoadLockedReq MSHR misses
system.cpu3.dcache.StoreCondReq_mshr_misses::switch_cpus3.data         1394                       # number of StoreCondReq MSHR misses
system.cpu3.dcache.StoreCondReq_mshr_misses::total         1394                       # number of StoreCondReq MSHR misses
system.cpu3.dcache.demand_mshr_misses::switch_cpus3.data        41597                       # number of demand (read+write) MSHR misses
system.cpu3.dcache.demand_mshr_misses::total        41597                       # number of demand (read+write) MSHR misses
system.cpu3.dcache.overall_mshr_misses::switch_cpus3.data        47768                       # number of overall MSHR misses
system.cpu3.dcache.overall_mshr_misses::total        47768                       # number of overall MSHR misses
system.cpu3.dcache.ReadReq_mshr_miss_latency::switch_cpus3.data    506282363                       # number of ReadReq MSHR miss cycles
system.cpu3.dcache.ReadReq_mshr_miss_latency::total    506282363                       # number of ReadReq MSHR miss cycles
system.cpu3.dcache.WriteReq_mshr_miss_latency::switch_cpus3.data    405030209                       # number of WriteReq MSHR miss cycles
system.cpu3.dcache.WriteReq_mshr_miss_latency::total    405030209                       # number of WriteReq MSHR miss cycles
system.cpu3.dcache.SoftPFReq_mshr_miss_latency::switch_cpus3.data    203377012                       # number of SoftPFReq MSHR miss cycles
system.cpu3.dcache.SoftPFReq_mshr_miss_latency::total    203377012                       # number of SoftPFReq MSHR miss cycles
system.cpu3.dcache.LoadLockedReq_mshr_miss_latency::switch_cpus3.data     16219010                       # number of LoadLockedReq MSHR miss cycles
system.cpu3.dcache.LoadLockedReq_mshr_miss_latency::total     16219010                       # number of LoadLockedReq MSHR miss cycles
system.cpu3.dcache.StoreCondReq_mshr_miss_latency::switch_cpus3.data      4674432                       # number of StoreCondReq MSHR miss cycles
system.cpu3.dcache.StoreCondReq_mshr_miss_latency::total      4674432                       # number of StoreCondReq MSHR miss cycles
system.cpu3.dcache.StoreCondFailReq_mshr_miss_latency::switch_cpus3.data        24500                       # number of StoreCondFailReq MSHR miss cycles
system.cpu3.dcache.StoreCondFailReq_mshr_miss_latency::total        24500                       # number of StoreCondFailReq MSHR miss cycles
system.cpu3.dcache.demand_mshr_miss_latency::switch_cpus3.data    911312572                       # number of demand (read+write) MSHR miss cycles
system.cpu3.dcache.demand_mshr_miss_latency::total    911312572                       # number of demand (read+write) MSHR miss cycles
system.cpu3.dcache.overall_mshr_miss_latency::switch_cpus3.data   1114689584                       # number of overall MSHR miss cycles
system.cpu3.dcache.overall_mshr_miss_latency::total   1114689584                       # number of overall MSHR miss cycles
system.cpu3.dcache.ReadReq_mshr_uncacheable_latency::switch_cpus3.data     27327998                       # number of ReadReq MSHR uncacheable cycles
system.cpu3.dcache.ReadReq_mshr_uncacheable_latency::total     27327998                       # number of ReadReq MSHR uncacheable cycles
system.cpu3.dcache.WriteReq_mshr_uncacheable_latency::switch_cpus3.data      1323000                       # number of WriteReq MSHR uncacheable cycles
system.cpu3.dcache.WriteReq_mshr_uncacheable_latency::total      1323000                       # number of WriteReq MSHR uncacheable cycles
system.cpu3.dcache.overall_mshr_uncacheable_latency::switch_cpus3.data     28650998                       # number of overall MSHR uncacheable cycles
system.cpu3.dcache.overall_mshr_uncacheable_latency::total     28650998                       # number of overall MSHR uncacheable cycles
system.cpu3.dcache.ReadReq_mshr_miss_rate::switch_cpus3.data     0.004442                       # mshr miss rate for ReadReq accesses
system.cpu3.dcache.ReadReq_mshr_miss_rate::total     0.004442                       # mshr miss rate for ReadReq accesses
system.cpu3.dcache.WriteReq_mshr_miss_rate::switch_cpus3.data     0.005437                       # mshr miss rate for WriteReq accesses
system.cpu3.dcache.WriteReq_mshr_miss_rate::total     0.005437                       # mshr miss rate for WriteReq accesses
system.cpu3.dcache.SoftPFReq_mshr_miss_rate::switch_cpus3.data     0.751095                       # mshr miss rate for SoftPFReq accesses
system.cpu3.dcache.SoftPFReq_mshr_miss_rate::total     0.751095                       # mshr miss rate for SoftPFReq accesses
system.cpu3.dcache.LoadLockedReq_mshr_miss_rate::switch_cpus3.data     0.021345                       # mshr miss rate for LoadLockedReq accesses
system.cpu3.dcache.LoadLockedReq_mshr_miss_rate::total     0.021345                       # mshr miss rate for LoadLockedReq accesses
system.cpu3.dcache.StoreCondReq_mshr_miss_rate::switch_cpus3.data     0.029049                       # mshr miss rate for StoreCondReq accesses
system.cpu3.dcache.StoreCondReq_mshr_miss_rate::total     0.029049                       # mshr miss rate for StoreCondReq accesses
system.cpu3.dcache.demand_mshr_miss_rate::switch_cpus3.data     0.004809                       # mshr miss rate for demand accesses
system.cpu3.dcache.demand_mshr_miss_rate::total     0.004809                       # mshr miss rate for demand accesses
system.cpu3.dcache.overall_mshr_miss_rate::switch_cpus3.data     0.005517                       # mshr miss rate for overall accesses
system.cpu3.dcache.overall_mshr_miss_rate::total     0.005517                       # mshr miss rate for overall accesses
system.cpu3.dcache.ReadReq_avg_mshr_miss_latency::switch_cpus3.data 20871.598425                       # average ReadReq mshr miss latency
system.cpu3.dcache.ReadReq_avg_mshr_miss_latency::total 20871.598425                       # average ReadReq mshr miss latency
system.cpu3.dcache.WriteReq_avg_mshr_miss_latency::switch_cpus3.data 23358.143541                       # average WriteReq mshr miss latency
system.cpu3.dcache.WriteReq_avg_mshr_miss_latency::total 23358.143541                       # average WriteReq mshr miss latency
system.cpu3.dcache.SoftPFReq_avg_mshr_miss_latency::switch_cpus3.data 32956.897099                       # average SoftPFReq mshr miss latency
system.cpu3.dcache.SoftPFReq_avg_mshr_miss_latency::total 32956.897099                       # average SoftPFReq mshr miss latency
system.cpu3.dcache.LoadLockedReq_avg_mshr_miss_latency::switch_cpus3.data 15731.338506                       # average LoadLockedReq mshr miss latency
system.cpu3.dcache.LoadLockedReq_avg_mshr_miss_latency::total 15731.338506                       # average LoadLockedReq mshr miss latency
system.cpu3.dcache.StoreCondReq_avg_mshr_miss_latency::switch_cpus3.data  3353.251076                       # average StoreCondReq mshr miss latency
system.cpu3.dcache.StoreCondReq_avg_mshr_miss_latency::total  3353.251076                       # average StoreCondReq mshr miss latency
system.cpu3.dcache.StoreCondFailReq_avg_mshr_miss_latency::switch_cpus3.data          inf                       # average StoreCondFailReq mshr miss latency
system.cpu3.dcache.StoreCondFailReq_avg_mshr_miss_latency::total          inf                       # average StoreCondFailReq mshr miss latency
system.cpu3.dcache.demand_avg_mshr_miss_latency::switch_cpus3.data 21908.132125                       # average overall mshr miss latency
system.cpu3.dcache.demand_avg_mshr_miss_latency::total 21908.132125                       # average overall mshr miss latency
system.cpu3.dcache.overall_avg_mshr_miss_latency::switch_cpus3.data 23335.487858                       # average overall mshr miss latency
system.cpu3.dcache.overall_avg_mshr_miss_latency::total 23335.487858                       # average overall mshr miss latency
system.cpu3.dcache.ReadReq_avg_mshr_uncacheable_latency::switch_cpus3.data          inf                       # average ReadReq mshr uncacheable latency
system.cpu3.dcache.ReadReq_avg_mshr_uncacheable_latency::total          inf                       # average ReadReq mshr uncacheable latency
system.cpu3.dcache.WriteReq_avg_mshr_uncacheable_latency::switch_cpus3.data          inf                       # average WriteReq mshr uncacheable latency
system.cpu3.dcache.WriteReq_avg_mshr_uncacheable_latency::total          inf                       # average WriteReq mshr uncacheable latency
system.cpu3.dcache.overall_avg_mshr_uncacheable_latency::switch_cpus3.data          inf                       # average overall mshr uncacheable latency
system.cpu3.dcache.overall_avg_mshr_uncacheable_latency::total          inf                       # average overall mshr uncacheable latency
system.cpu3.dcache.no_allocate_misses               0                       # Number of misses that were no-allocate
system.iocache.tags.replacements                    0                       # number of replacements
system.iocache.tags.tagsinuse                       0                       # Cycle average of tags in use
system.iocache.tags.total_refs                      0                       # Total number of references to valid blocks.
system.iocache.tags.sampled_refs                    0                       # Sample count of references to valid blocks.
system.iocache.tags.avg_refs                      nan                       # Average number of references to valid blocks.
system.iocache.tags.warmup_cycle                    0                       # Cycle when the warmup percentage was hit.
system.iocache.tags.tag_accesses                    0                       # Number of tag accesses
system.iocache.tags.data_accesses                   0                       # Number of data accesses
system.iocache.blocked_cycles::no_mshrs             0                       # number of cycles access was blocked
system.iocache.blocked_cycles::no_targets            0                       # number of cycles access was blocked
system.iocache.blocked::no_mshrs                    0                       # number of cycles access was blocked
system.iocache.blocked::no_targets                  0                       # number of cycles access was blocked
system.iocache.avg_blocked_cycles::no_mshrs          nan                       # average number of cycles each access was blocked
system.iocache.avg_blocked_cycles::no_targets          nan                       # average number of cycles each access was blocked
system.iocache.fast_writes                          0                       # number of fast writes performed
system.iocache.cache_copies                         0                       # number of cache copies performed
system.iocache.no_allocate_misses                   0                       # Number of misses that were no-allocate
system.switch_cpus0.kern.inst.arm                   0                       # number of arm instructions executed
system.switch_cpus0.kern.inst.quiesce               0                       # number of quiesce instructions executed
system.switch_cpus1.kern.inst.arm                   0                       # number of arm instructions executed
system.switch_cpus1.kern.inst.quiesce               0                       # number of quiesce instructions executed
system.switch_cpus2.kern.inst.arm                   0                       # number of arm instructions executed
system.switch_cpus2.kern.inst.quiesce               0                       # number of quiesce instructions executed
system.switch_cpus3.kern.inst.arm                   0                       # number of arm instructions executed
system.switch_cpus3.kern.inst.quiesce               0                       # number of quiesce instructions executed

---------- End Simulation Statistics   ----------
