
---------- Begin Simulation Statistics ----------
sim_seconds                                  0.364975                       # Number of seconds simulated
sim_ticks                                364974633500                       # Number of ticks simulated
final_tick                               3597230880500                       # Number of ticks from beginning of simulation (restored from checkpoints and never reset)
sim_freq                                 1000000000000                       # Frequency of simulated ticks
host_inst_rate                                 218501                       # Simulator instruction rate (inst/s)
host_op_rate                                   219889                       # Simulator op (including micro ops) rate (op/s)
host_tick_rate                               10684758                       # Simulator tick rate (ticks/s)
host_mem_usage                                1086056                       # Number of bytes of host memory used
host_seconds                                 34158.44                       # Real time elapsed on the host
sim_insts                                  7463651259                       # Number of instructions simulated
sim_ops                                    7511080445                       # Number of ops (including micro ops) simulated
system.voltage_domain.voltage                       1                       # Voltage in Volts
system.clk_domain.clock                          1000                       # Clock period in ticks
system.mem_ctrls.bytes_read::switch_cpus0.dtb.walker        84288                       # Number of bytes read from this memory
system.mem_ctrls.bytes_read::switch_cpus0.itb.walker        12864                       # Number of bytes read from this memory
system.mem_ctrls.bytes_read::switch_cpus0.inst       563904                       # Number of bytes read from this memory
system.mem_ctrls.bytes_read::switch_cpus0.data      2785600                       # Number of bytes read from this memory
system.mem_ctrls.bytes_read::switch_cpus1.dtb.walker        54656                       # Number of bytes read from this memory
system.mem_ctrls.bytes_read::switch_cpus1.itb.walker         3648                       # Number of bytes read from this memory
system.mem_ctrls.bytes_read::switch_cpus1.inst       558784                       # Number of bytes read from this memory
system.mem_ctrls.bytes_read::switch_cpus1.data      2644288                       # Number of bytes read from this memory
system.mem_ctrls.bytes_read::switch_cpus2.dtb.walker        66624                       # Number of bytes read from this memory
system.mem_ctrls.bytes_read::switch_cpus2.itb.walker        10880                       # Number of bytes read from this memory
system.mem_ctrls.bytes_read::switch_cpus2.inst       489216                       # Number of bytes read from this memory
system.mem_ctrls.bytes_read::switch_cpus2.data      3054464                       # Number of bytes read from this memory
system.mem_ctrls.bytes_read::switch_cpus3.dtb.walker        72704                       # Number of bytes read from this memory
system.mem_ctrls.bytes_read::switch_cpus3.itb.walker        10496                       # Number of bytes read from this memory
system.mem_ctrls.bytes_read::switch_cpus3.inst       626752                       # Number of bytes read from this memory
system.mem_ctrls.bytes_read::switch_cpus3.data      3480320                       # Number of bytes read from this memory
system.mem_ctrls.bytes_read::switch_cpus4.dtb.walker        83712                       # Number of bytes read from this memory
system.mem_ctrls.bytes_read::switch_cpus4.itb.walker        28800                       # Number of bytes read from this memory
system.mem_ctrls.bytes_read::switch_cpus4.inst       713792                       # Number of bytes read from this memory
system.mem_ctrls.bytes_read::switch_cpus4.data      3358848                       # Number of bytes read from this memory
system.mem_ctrls.bytes_read::switch_cpus5.dtb.walker        73920                       # Number of bytes read from this memory
system.mem_ctrls.bytes_read::switch_cpus5.itb.walker        12416                       # Number of bytes read from this memory
system.mem_ctrls.bytes_read::switch_cpus5.inst       589760                       # Number of bytes read from this memory
system.mem_ctrls.bytes_read::switch_cpus5.data      2866048                       # Number of bytes read from this memory
system.mem_ctrls.bytes_read::switch_cpus6.dtb.walker        72896                       # Number of bytes read from this memory
system.mem_ctrls.bytes_read::switch_cpus6.itb.walker        10176                       # Number of bytes read from this memory
system.mem_ctrls.bytes_read::switch_cpus6.inst       900352                       # Number of bytes read from this memory
system.mem_ctrls.bytes_read::switch_cpus6.data      3887680                       # Number of bytes read from this memory
system.mem_ctrls.bytes_read::switch_cpus7.dtb.walker        61056                       # Number of bytes read from this memory
system.mem_ctrls.bytes_read::switch_cpus7.itb.walker         8832                       # Number of bytes read from this memory
system.mem_ctrls.bytes_read::switch_cpus7.inst       473472                       # Number of bytes read from this memory
system.mem_ctrls.bytes_read::switch_cpus7.data      2513856                       # Number of bytes read from this memory
system.mem_ctrls.bytes_read::l2.prefetcher    166335616                       # Number of bytes read from this memory
system.mem_ctrls.bytes_read::cpu0.inst            256                       # Number of bytes read from this memory
system.mem_ctrls.bytes_read::cpu0.data            192                       # Number of bytes read from this memory
system.mem_ctrls.bytes_read::cpu6.inst            192                       # Number of bytes read from this memory
system.mem_ctrls.bytes_read::cpu6.data             64                       # Number of bytes read from this memory
system.mem_ctrls.bytes_read::total          196511424                       # Number of bytes read from this memory
system.mem_ctrls.bytes_inst_read::switch_cpus0.inst       563904                       # Number of instructions bytes read from this memory
system.mem_ctrls.bytes_inst_read::switch_cpus1.inst       558784                       # Number of instructions bytes read from this memory
system.mem_ctrls.bytes_inst_read::switch_cpus2.inst       489216                       # Number of instructions bytes read from this memory
system.mem_ctrls.bytes_inst_read::switch_cpus3.inst       626752                       # Number of instructions bytes read from this memory
system.mem_ctrls.bytes_inst_read::switch_cpus4.inst       713792                       # Number of instructions bytes read from this memory
system.mem_ctrls.bytes_inst_read::switch_cpus5.inst       589760                       # Number of instructions bytes read from this memory
system.mem_ctrls.bytes_inst_read::switch_cpus6.inst       900352                       # Number of instructions bytes read from this memory
system.mem_ctrls.bytes_inst_read::switch_cpus7.inst       473472                       # Number of instructions bytes read from this memory
system.mem_ctrls.bytes_inst_read::cpu0.inst          256                       # Number of instructions bytes read from this memory
system.mem_ctrls.bytes_inst_read::cpu6.inst          192                       # Number of instructions bytes read from this memory
system.mem_ctrls.bytes_inst_read::total       4916480                       # Number of instructions bytes read from this memory
system.mem_ctrls.bytes_written::writebacks     21402112                       # Number of bytes written to this memory
system.mem_ctrls.bytes_written::realview.ide        80896                       # Number of bytes written to this memory
system.mem_ctrls.bytes_written::total        21483008                       # Number of bytes written to this memory
system.mem_ctrls.num_reads::switch_cpus0.dtb.walker         1317                       # Number of read requests responded to by this memory
system.mem_ctrls.num_reads::switch_cpus0.itb.walker          201                       # Number of read requests responded to by this memory
system.mem_ctrls.num_reads::switch_cpus0.inst         8811                       # Number of read requests responded to by this memory
system.mem_ctrls.num_reads::switch_cpus0.data        43525                       # Number of read requests responded to by this memory
system.mem_ctrls.num_reads::switch_cpus1.dtb.walker          854                       # Number of read requests responded to by this memory
system.mem_ctrls.num_reads::switch_cpus1.itb.walker           57                       # Number of read requests responded to by this memory
system.mem_ctrls.num_reads::switch_cpus1.inst         8731                       # Number of read requests responded to by this memory
system.mem_ctrls.num_reads::switch_cpus1.data        41317                       # Number of read requests responded to by this memory
system.mem_ctrls.num_reads::switch_cpus2.dtb.walker         1041                       # Number of read requests responded to by this memory
system.mem_ctrls.num_reads::switch_cpus2.itb.walker          170                       # Number of read requests responded to by this memory
system.mem_ctrls.num_reads::switch_cpus2.inst         7644                       # Number of read requests responded to by this memory
system.mem_ctrls.num_reads::switch_cpus2.data        47726                       # Number of read requests responded to by this memory
system.mem_ctrls.num_reads::switch_cpus3.dtb.walker         1136                       # Number of read requests responded to by this memory
system.mem_ctrls.num_reads::switch_cpus3.itb.walker          164                       # Number of read requests responded to by this memory
system.mem_ctrls.num_reads::switch_cpus3.inst         9793                       # Number of read requests responded to by this memory
system.mem_ctrls.num_reads::switch_cpus3.data        54380                       # Number of read requests responded to by this memory
system.mem_ctrls.num_reads::switch_cpus4.dtb.walker         1308                       # Number of read requests responded to by this memory
system.mem_ctrls.num_reads::switch_cpus4.itb.walker          450                       # Number of read requests responded to by this memory
system.mem_ctrls.num_reads::switch_cpus4.inst        11153                       # Number of read requests responded to by this memory
system.mem_ctrls.num_reads::switch_cpus4.data        52482                       # Number of read requests responded to by this memory
system.mem_ctrls.num_reads::switch_cpus5.dtb.walker         1155                       # Number of read requests responded to by this memory
system.mem_ctrls.num_reads::switch_cpus5.itb.walker          194                       # Number of read requests responded to by this memory
system.mem_ctrls.num_reads::switch_cpus5.inst         9215                       # Number of read requests responded to by this memory
system.mem_ctrls.num_reads::switch_cpus5.data        44782                       # Number of read requests responded to by this memory
system.mem_ctrls.num_reads::switch_cpus6.dtb.walker         1139                       # Number of read requests responded to by this memory
system.mem_ctrls.num_reads::switch_cpus6.itb.walker          159                       # Number of read requests responded to by this memory
system.mem_ctrls.num_reads::switch_cpus6.inst        14068                       # Number of read requests responded to by this memory
system.mem_ctrls.num_reads::switch_cpus6.data        60745                       # Number of read requests responded to by this memory
system.mem_ctrls.num_reads::switch_cpus7.dtb.walker          954                       # Number of read requests responded to by this memory
system.mem_ctrls.num_reads::switch_cpus7.itb.walker          138                       # Number of read requests responded to by this memory
system.mem_ctrls.num_reads::switch_cpus7.inst         7398                       # Number of read requests responded to by this memory
system.mem_ctrls.num_reads::switch_cpus7.data        39279                       # Number of read requests responded to by this memory
system.mem_ctrls.num_reads::l2.prefetcher      2598994                       # Number of read requests responded to by this memory
system.mem_ctrls.num_reads::cpu0.inst               4                       # Number of read requests responded to by this memory
system.mem_ctrls.num_reads::cpu0.data               3                       # Number of read requests responded to by this memory
system.mem_ctrls.num_reads::cpu6.inst               3                       # Number of read requests responded to by this memory
system.mem_ctrls.num_reads::cpu6.data               1                       # Number of read requests responded to by this memory
system.mem_ctrls.num_reads::total             3070491                       # Number of read requests responded to by this memory
system.mem_ctrls.num_writes::writebacks        334408                       # Number of write requests responded to by this memory
system.mem_ctrls.num_writes::realview.ide         1264                       # Number of write requests responded to by this memory
system.mem_ctrls.num_writes::total             335672                       # Number of write requests responded to by this memory
system.mem_ctrls.bw_read::switch_cpus0.dtb.walker       230942                       # Total read bandwidth from this memory (bytes/s)
system.mem_ctrls.bw_read::switch_cpus0.itb.walker        35246                       # Total read bandwidth from this memory (bytes/s)
system.mem_ctrls.bw_read::switch_cpus0.inst      1545050                       # Total read bandwidth from this memory (bytes/s)
system.mem_ctrls.bw_read::switch_cpus0.data      7632311                       # Total read bandwidth from this memory (bytes/s)
system.mem_ctrls.bw_read::switch_cpus1.dtb.walker       149753                       # Total read bandwidth from this memory (bytes/s)
system.mem_ctrls.bw_read::switch_cpus1.itb.walker         9995                       # Total read bandwidth from this memory (bytes/s)
system.mem_ctrls.bw_read::switch_cpus1.inst      1531021                       # Total read bandwidth from this memory (bytes/s)
system.mem_ctrls.bw_read::switch_cpus1.data      7245128                       # Total read bandwidth from this memory (bytes/s)
system.mem_ctrls.bw_read::switch_cpus2.dtb.walker       182544                       # Total read bandwidth from this memory (bytes/s)
system.mem_ctrls.bw_read::switch_cpus2.itb.walker        29810                       # Total read bandwidth from this memory (bytes/s)
system.mem_ctrls.bw_read::switch_cpus2.inst      1340411                       # Total read bandwidth from this memory (bytes/s)
system.mem_ctrls.bw_read::switch_cpus2.data      8368976                       # Total read bandwidth from this memory (bytes/s)
system.mem_ctrls.bw_read::switch_cpus3.dtb.walker       199203                       # Total read bandwidth from this memory (bytes/s)
system.mem_ctrls.bw_read::switch_cpus3.itb.walker        28758                       # Total read bandwidth from this memory (bytes/s)
system.mem_ctrls.bw_read::switch_cpus3.inst      1717248                       # Total read bandwidth from this memory (bytes/s)
system.mem_ctrls.bw_read::switch_cpus3.data      9535786                       # Total read bandwidth from this memory (bytes/s)
system.mem_ctrls.bw_read::switch_cpus4.dtb.walker       229364                       # Total read bandwidth from this memory (bytes/s)
system.mem_ctrls.bw_read::switch_cpus4.itb.walker        78910                       # Total read bandwidth from this memory (bytes/s)
system.mem_ctrls.bw_read::switch_cpus4.inst      1955730                       # Total read bandwidth from this memory (bytes/s)
system.mem_ctrls.bw_read::switch_cpus4.data      9202963                       # Total read bandwidth from this memory (bytes/s)
system.mem_ctrls.bw_read::switch_cpus5.dtb.walker       202535                       # Total read bandwidth from this memory (bytes/s)
system.mem_ctrls.bw_read::switch_cpus5.itb.walker        34019                       # Total read bandwidth from this memory (bytes/s)
system.mem_ctrls.bw_read::switch_cpus5.inst      1615893                       # Total read bandwidth from this memory (bytes/s)
system.mem_ctrls.bw_read::switch_cpus5.data      7852732                       # Total read bandwidth from this memory (bytes/s)
system.mem_ctrls.bw_read::switch_cpus6.dtb.walker       199729                       # Total read bandwidth from this memory (bytes/s)
system.mem_ctrls.bw_read::switch_cpus6.itb.walker        27881                       # Total read bandwidth from this memory (bytes/s)
system.mem_ctrls.bw_read::switch_cpus6.inst      2466889                       # Total read bandwidth from this memory (bytes/s)
system.mem_ctrls.bw_read::switch_cpus6.data     10651918                       # Total read bandwidth from this memory (bytes/s)
system.mem_ctrls.bw_read::switch_cpus7.dtb.walker       167288                       # Total read bandwidth from this memory (bytes/s)
system.mem_ctrls.bw_read::switch_cpus7.itb.walker        24199                       # Total read bandwidth from this memory (bytes/s)
system.mem_ctrls.bw_read::switch_cpus7.inst      1297274                       # Total read bandwidth from this memory (bytes/s)
system.mem_ctrls.bw_read::switch_cpus7.data      6887755                       # Total read bandwidth from this memory (bytes/s)
system.mem_ctrls.bw_read::l2.prefetcher     455745690                       # Total read bandwidth from this memory (bytes/s)
system.mem_ctrls.bw_read::cpu0.inst               701                       # Total read bandwidth from this memory (bytes/s)
system.mem_ctrls.bw_read::cpu0.data               526                       # Total read bandwidth from this memory (bytes/s)
system.mem_ctrls.bw_read::cpu6.inst               526                       # Total read bandwidth from this memory (bytes/s)
system.mem_ctrls.bw_read::cpu6.data               175                       # Total read bandwidth from this memory (bytes/s)
system.mem_ctrls.bw_read::total             538424882                       # Total read bandwidth from this memory (bytes/s)
system.mem_ctrls.bw_inst_read::switch_cpus0.inst      1545050                       # Instruction read bandwidth from this memory (bytes/s)
system.mem_ctrls.bw_inst_read::switch_cpus1.inst      1531021                       # Instruction read bandwidth from this memory (bytes/s)
system.mem_ctrls.bw_inst_read::switch_cpus2.inst      1340411                       # Instruction read bandwidth from this memory (bytes/s)
system.mem_ctrls.bw_inst_read::switch_cpus3.inst      1717248                       # Instruction read bandwidth from this memory (bytes/s)
system.mem_ctrls.bw_inst_read::switch_cpus4.inst      1955730                       # Instruction read bandwidth from this memory (bytes/s)
system.mem_ctrls.bw_inst_read::switch_cpus5.inst      1615893                       # Instruction read bandwidth from this memory (bytes/s)
system.mem_ctrls.bw_inst_read::switch_cpus6.inst      2466889                       # Instruction read bandwidth from this memory (bytes/s)
system.mem_ctrls.bw_inst_read::switch_cpus7.inst      1297274                       # Instruction read bandwidth from this memory (bytes/s)
system.mem_ctrls.bw_inst_read::cpu0.inst          701                       # Instruction read bandwidth from this memory (bytes/s)
system.mem_ctrls.bw_inst_read::cpu6.inst          526                       # Instruction read bandwidth from this memory (bytes/s)
system.mem_ctrls.bw_inst_read::total         13470744                       # Instruction read bandwidth from this memory (bytes/s)
system.mem_ctrls.bw_write::writebacks        58639999                       # Write bandwidth from this memory (bytes/s)
system.mem_ctrls.bw_write::realview.ide        221648                       # Write bandwidth from this memory (bytes/s)
system.mem_ctrls.bw_write::total             58861647                       # Write bandwidth from this memory (bytes/s)
system.mem_ctrls.bw_total::writebacks        58639999                       # Total bandwidth to/from this memory (bytes/s)
system.mem_ctrls.bw_total::switch_cpus0.dtb.walker       230942                       # Total bandwidth to/from this memory (bytes/s)
system.mem_ctrls.bw_total::switch_cpus0.itb.walker        35246                       # Total bandwidth to/from this memory (bytes/s)
system.mem_ctrls.bw_total::switch_cpus0.inst      1545050                       # Total bandwidth to/from this memory (bytes/s)
system.mem_ctrls.bw_total::switch_cpus0.data      7632311                       # Total bandwidth to/from this memory (bytes/s)
system.mem_ctrls.bw_total::switch_cpus1.dtb.walker       149753                       # Total bandwidth to/from this memory (bytes/s)
system.mem_ctrls.bw_total::switch_cpus1.itb.walker         9995                       # Total bandwidth to/from this memory (bytes/s)
system.mem_ctrls.bw_total::switch_cpus1.inst      1531021                       # Total bandwidth to/from this memory (bytes/s)
system.mem_ctrls.bw_total::switch_cpus1.data      7245128                       # Total bandwidth to/from this memory (bytes/s)
system.mem_ctrls.bw_total::switch_cpus2.dtb.walker       182544                       # Total bandwidth to/from this memory (bytes/s)
system.mem_ctrls.bw_total::switch_cpus2.itb.walker        29810                       # Total bandwidth to/from this memory (bytes/s)
system.mem_ctrls.bw_total::switch_cpus2.inst      1340411                       # Total bandwidth to/from this memory (bytes/s)
system.mem_ctrls.bw_total::switch_cpus2.data      8368976                       # Total bandwidth to/from this memory (bytes/s)
system.mem_ctrls.bw_total::switch_cpus3.dtb.walker       199203                       # Total bandwidth to/from this memory (bytes/s)
system.mem_ctrls.bw_total::switch_cpus3.itb.walker        28758                       # Total bandwidth to/from this memory (bytes/s)
system.mem_ctrls.bw_total::switch_cpus3.inst      1717248                       # Total bandwidth to/from this memory (bytes/s)
system.mem_ctrls.bw_total::switch_cpus3.data      9535786                       # Total bandwidth to/from this memory (bytes/s)
system.mem_ctrls.bw_total::switch_cpus4.dtb.walker       229364                       # Total bandwidth to/from this memory (bytes/s)
system.mem_ctrls.bw_total::switch_cpus4.itb.walker        78910                       # Total bandwidth to/from this memory (bytes/s)
system.mem_ctrls.bw_total::switch_cpus4.inst      1955730                       # Total bandwidth to/from this memory (bytes/s)
system.mem_ctrls.bw_total::switch_cpus4.data      9202963                       # Total bandwidth to/from this memory (bytes/s)
system.mem_ctrls.bw_total::switch_cpus5.dtb.walker       202535                       # Total bandwidth to/from this memory (bytes/s)
system.mem_ctrls.bw_total::switch_cpus5.itb.walker        34019                       # Total bandwidth to/from this memory (bytes/s)
system.mem_ctrls.bw_total::switch_cpus5.inst      1615893                       # Total bandwidth to/from this memory (bytes/s)
system.mem_ctrls.bw_total::switch_cpus5.data      7852732                       # Total bandwidth to/from this memory (bytes/s)
system.mem_ctrls.bw_total::switch_cpus6.dtb.walker       199729                       # Total bandwidth to/from this memory (bytes/s)
system.mem_ctrls.bw_total::switch_cpus6.itb.walker        27881                       # Total bandwidth to/from this memory (bytes/s)
system.mem_ctrls.bw_total::switch_cpus6.inst      2466889                       # Total bandwidth to/from this memory (bytes/s)
system.mem_ctrls.bw_total::switch_cpus6.data     10651918                       # Total bandwidth to/from this memory (bytes/s)
system.mem_ctrls.bw_total::switch_cpus7.dtb.walker       167288                       # Total bandwidth to/from this memory (bytes/s)
system.mem_ctrls.bw_total::switch_cpus7.itb.walker        24199                       # Total bandwidth to/from this memory (bytes/s)
system.mem_ctrls.bw_total::switch_cpus7.inst      1297274                       # Total bandwidth to/from this memory (bytes/s)
system.mem_ctrls.bw_total::switch_cpus7.data      6887755                       # Total bandwidth to/from this memory (bytes/s)
system.mem_ctrls.bw_total::realview.ide        221648                       # Total bandwidth to/from this memory (bytes/s)
system.mem_ctrls.bw_total::l2.prefetcher    455745690                       # Total bandwidth to/from this memory (bytes/s)
system.mem_ctrls.bw_total::cpu0.inst              701                       # Total bandwidth to/from this memory (bytes/s)
system.mem_ctrls.bw_total::cpu0.data              526                       # Total bandwidth to/from this memory (bytes/s)
system.mem_ctrls.bw_total::cpu6.inst              526                       # Total bandwidth to/from this memory (bytes/s)
system.mem_ctrls.bw_total::cpu6.data              175                       # Total bandwidth to/from this memory (bytes/s)
system.mem_ctrls.bw_total::total            597286529                       # Total bandwidth to/from this memory (bytes/s)
system.mem_ctrls.readReqs                     3070480                       # Number of read requests accepted
system.mem_ctrls.writeReqs                     335672                       # Number of write requests accepted
system.mem_ctrls.readBursts                   3070480                       # Number of DRAM read bursts, including those serviced by the write queue
system.mem_ctrls.writeBursts                   335672                       # Number of DRAM write bursts, including those merged in the write queue
system.mem_ctrls.bytesReadDRAM              196334848                       # Total number of bytes read from DRAM
system.mem_ctrls.bytesReadWrQ                  175872                       # Total number of bytes read from write queue
system.mem_ctrls.bytesWritten                21481024                       # Total number of bytes written to DRAM
system.mem_ctrls.bytesReadSys               196510720                       # Total read bytes from the system interface side
system.mem_ctrls.bytesWrittenSys             21483008                       # Total written bytes from the system interface side
system.mem_ctrls.servicedByWrQ                   2748                       # Number of DRAM read bursts serviced by the write queue
system.mem_ctrls.mergedWrBursts                     2                       # Number of DRAM write bursts merged with an existing one
system.mem_ctrls.neitherReadNorWriteReqs        38009                       # Number of requests that are neither read nor write
system.mem_ctrls.perBankRdBursts::0            173355                       # Per bank write bursts
system.mem_ctrls.perBankRdBursts::1            172931                       # Per bank write bursts
system.mem_ctrls.perBankRdBursts::2            228486                       # Per bank write bursts
system.mem_ctrls.perBankRdBursts::3            250106                       # Per bank write bursts
system.mem_ctrls.perBankRdBursts::4            164053                       # Per bank write bursts
system.mem_ctrls.perBankRdBursts::5            197922                       # Per bank write bursts
system.mem_ctrls.perBankRdBursts::6            198234                       # Per bank write bursts
system.mem_ctrls.perBankRdBursts::7            214306                       # Per bank write bursts
system.mem_ctrls.perBankRdBursts::8            232242                       # Per bank write bursts
system.mem_ctrls.perBankRdBursts::9            257578                       # Per bank write bursts
system.mem_ctrls.perBankRdBursts::10           184318                       # Per bank write bursts
system.mem_ctrls.perBankRdBursts::11           193421                       # Per bank write bursts
system.mem_ctrls.perBankRdBursts::12           105373                       # Per bank write bursts
system.mem_ctrls.perBankRdBursts::13           166661                       # Per bank write bursts
system.mem_ctrls.perBankRdBursts::14           158125                       # Per bank write bursts
system.mem_ctrls.perBankRdBursts::15           170621                       # Per bank write bursts
system.mem_ctrls.perBankWrBursts::0             24092                       # Per bank write bursts
system.mem_ctrls.perBankWrBursts::1             19108                       # Per bank write bursts
system.mem_ctrls.perBankWrBursts::2             19897                       # Per bank write bursts
system.mem_ctrls.perBankWrBursts::3             22158                       # Per bank write bursts
system.mem_ctrls.perBankWrBursts::4             18034                       # Per bank write bursts
system.mem_ctrls.perBankWrBursts::5             17900                       # Per bank write bursts
system.mem_ctrls.perBankWrBursts::6             18183                       # Per bank write bursts
system.mem_ctrls.perBankWrBursts::7             19292                       # Per bank write bursts
system.mem_ctrls.perBankWrBursts::8             24718                       # Per bank write bursts
system.mem_ctrls.perBankWrBursts::9             24251                       # Per bank write bursts
system.mem_ctrls.perBankWrBursts::10            24047                       # Per bank write bursts
system.mem_ctrls.perBankWrBursts::11            31442                       # Per bank write bursts
system.mem_ctrls.perBankWrBursts::12            20811                       # Per bank write bursts
system.mem_ctrls.perBankWrBursts::13            20514                       # Per bank write bursts
system.mem_ctrls.perBankWrBursts::14            16120                       # Per bank write bursts
system.mem_ctrls.perBankWrBursts::15            15074                       # Per bank write bursts
system.mem_ctrls.numRdRetry                         0                       # Number of times read queue was full causing retry
system.mem_ctrls.numWrRetry                         0                       # Number of times write queue was full causing retry
system.mem_ctrls.totGap                  364974369000                       # Total gap between requests
system.mem_ctrls.readPktSize::0                     0                       # Read request sizes (log2)
system.mem_ctrls.readPktSize::1                     0                       # Read request sizes (log2)
system.mem_ctrls.readPktSize::2                     0                       # Read request sizes (log2)
system.mem_ctrls.readPktSize::3                     0                       # Read request sizes (log2)
system.mem_ctrls.readPktSize::4                     0                       # Read request sizes (log2)
system.mem_ctrls.readPktSize::5                     0                       # Read request sizes (log2)
system.mem_ctrls.readPktSize::6               3070480                       # Read request sizes (log2)
system.mem_ctrls.writePktSize::0                    0                       # Write request sizes (log2)
system.mem_ctrls.writePktSize::1                    0                       # Write request sizes (log2)
system.mem_ctrls.writePktSize::2                    0                       # Write request sizes (log2)
system.mem_ctrls.writePktSize::3                    0                       # Write request sizes (log2)
system.mem_ctrls.writePktSize::4                    0                       # Write request sizes (log2)
system.mem_ctrls.writePktSize::5                    0                       # Write request sizes (log2)
system.mem_ctrls.writePktSize::6               335672                       # Write request sizes (log2)
system.mem_ctrls.rdQLenPdf::0                 1127702                       # What read queue length does an incoming req see
system.mem_ctrls.rdQLenPdf::1                  589295                       # What read queue length does an incoming req see
system.mem_ctrls.rdQLenPdf::2                  387264                       # What read queue length does an incoming req see
system.mem_ctrls.rdQLenPdf::3                  292391                       # What read queue length does an incoming req see
system.mem_ctrls.rdQLenPdf::4                  207409                       # What read queue length does an incoming req see
system.mem_ctrls.rdQLenPdf::5                  153828                       # What read queue length does an incoming req see
system.mem_ctrls.rdQLenPdf::6                  110651                       # What read queue length does an incoming req see
system.mem_ctrls.rdQLenPdf::7                   76612                       # What read queue length does an incoming req see
system.mem_ctrls.rdQLenPdf::8                   50126                       # What read queue length does an incoming req see
system.mem_ctrls.rdQLenPdf::9                   26691                       # What read queue length does an incoming req see
system.mem_ctrls.rdQLenPdf::10                  16904                       # What read queue length does an incoming req see
system.mem_ctrls.rdQLenPdf::11                  12575                       # What read queue length does an incoming req see
system.mem_ctrls.rdQLenPdf::12                   7315                       # What read queue length does an incoming req see
system.mem_ctrls.rdQLenPdf::13                   4515                       # What read queue length does an incoming req see
system.mem_ctrls.rdQLenPdf::14                   2797                       # What read queue length does an incoming req see
system.mem_ctrls.rdQLenPdf::15                   1657                       # What read queue length does an incoming req see
system.mem_ctrls.rdQLenPdf::16                      0                       # What read queue length does an incoming req see
system.mem_ctrls.rdQLenPdf::17                      0                       # What read queue length does an incoming req see
system.mem_ctrls.rdQLenPdf::18                      0                       # What read queue length does an incoming req see
system.mem_ctrls.rdQLenPdf::19                      0                       # What read queue length does an incoming req see
system.mem_ctrls.rdQLenPdf::20                      0                       # What read queue length does an incoming req see
system.mem_ctrls.rdQLenPdf::21                      0                       # What read queue length does an incoming req see
system.mem_ctrls.rdQLenPdf::22                      0                       # What read queue length does an incoming req see
system.mem_ctrls.rdQLenPdf::23                      0                       # What read queue length does an incoming req see
system.mem_ctrls.rdQLenPdf::24                      0                       # What read queue length does an incoming req see
system.mem_ctrls.rdQLenPdf::25                      0                       # What read queue length does an incoming req see
system.mem_ctrls.rdQLenPdf::26                      0                       # What read queue length does an incoming req see
system.mem_ctrls.rdQLenPdf::27                      0                       # What read queue length does an incoming req see
system.mem_ctrls.rdQLenPdf::28                      0                       # What read queue length does an incoming req see
system.mem_ctrls.rdQLenPdf::29                      0                       # What read queue length does an incoming req see
system.mem_ctrls.rdQLenPdf::30                      0                       # What read queue length does an incoming req see
system.mem_ctrls.rdQLenPdf::31                      0                       # What read queue length does an incoming req see
system.mem_ctrls.wrQLenPdf::0                       1                       # What write queue length does an incoming req see
system.mem_ctrls.wrQLenPdf::1                       1                       # What write queue length does an incoming req see
system.mem_ctrls.wrQLenPdf::2                       1                       # What write queue length does an incoming req see
system.mem_ctrls.wrQLenPdf::3                       1                       # What write queue length does an incoming req see
system.mem_ctrls.wrQLenPdf::4                       1                       # What write queue length does an incoming req see
system.mem_ctrls.wrQLenPdf::5                       1                       # What write queue length does an incoming req see
system.mem_ctrls.wrQLenPdf::6                       1                       # What write queue length does an incoming req see
system.mem_ctrls.wrQLenPdf::7                       1                       # What write queue length does an incoming req see
system.mem_ctrls.wrQLenPdf::8                       1                       # What write queue length does an incoming req see
system.mem_ctrls.wrQLenPdf::9                       1                       # What write queue length does an incoming req see
system.mem_ctrls.wrQLenPdf::10                      1                       # What write queue length does an incoming req see
system.mem_ctrls.wrQLenPdf::11                      1                       # What write queue length does an incoming req see
system.mem_ctrls.wrQLenPdf::12                      1                       # What write queue length does an incoming req see
system.mem_ctrls.wrQLenPdf::13                      1                       # What write queue length does an incoming req see
system.mem_ctrls.wrQLenPdf::14                      1                       # What write queue length does an incoming req see
system.mem_ctrls.wrQLenPdf::15                   9550                       # What write queue length does an incoming req see
system.mem_ctrls.wrQLenPdf::16                   9940                       # What write queue length does an incoming req see
system.mem_ctrls.wrQLenPdf::17                  15015                       # What write queue length does an incoming req see
system.mem_ctrls.wrQLenPdf::18                  16962                       # What write queue length does an incoming req see
system.mem_ctrls.wrQLenPdf::19                  17896                       # What write queue length does an incoming req see
system.mem_ctrls.wrQLenPdf::20                  18543                       # What write queue length does an incoming req see
system.mem_ctrls.wrQLenPdf::21                  19027                       # What write queue length does an incoming req see
system.mem_ctrls.wrQLenPdf::22                  19484                       # What write queue length does an incoming req see
system.mem_ctrls.wrQLenPdf::23                  19901                       # What write queue length does an incoming req see
system.mem_ctrls.wrQLenPdf::24                  20218                       # What write queue length does an incoming req see
system.mem_ctrls.wrQLenPdf::25                  20663                       # What write queue length does an incoming req see
system.mem_ctrls.wrQLenPdf::26                  20991                       # What write queue length does an incoming req see
system.mem_ctrls.wrQLenPdf::27                  21494                       # What write queue length does an incoming req see
system.mem_ctrls.wrQLenPdf::28                  22216                       # What write queue length does an incoming req see
system.mem_ctrls.wrQLenPdf::29                  21090                       # What write queue length does an incoming req see
system.mem_ctrls.wrQLenPdf::30                  20674                       # What write queue length does an incoming req see
system.mem_ctrls.wrQLenPdf::31                  20538                       # What write queue length does an incoming req see
system.mem_ctrls.wrQLenPdf::32                  19956                       # What write queue length does an incoming req see
system.mem_ctrls.wrQLenPdf::33                    502                       # What write queue length does an incoming req see
system.mem_ctrls.wrQLenPdf::34                    264                       # What write queue length does an incoming req see
system.mem_ctrls.wrQLenPdf::35                    130                       # What write queue length does an incoming req see
system.mem_ctrls.wrQLenPdf::36                     79                       # What write queue length does an incoming req see
system.mem_ctrls.wrQLenPdf::37                     52                       # What write queue length does an incoming req see
system.mem_ctrls.wrQLenPdf::38                     50                       # What write queue length does an incoming req see
system.mem_ctrls.wrQLenPdf::39                     36                       # What write queue length does an incoming req see
system.mem_ctrls.wrQLenPdf::40                     32                       # What write queue length does an incoming req see
system.mem_ctrls.wrQLenPdf::41                     27                       # What write queue length does an incoming req see
system.mem_ctrls.wrQLenPdf::42                     27                       # What write queue length does an incoming req see
system.mem_ctrls.wrQLenPdf::43                     28                       # What write queue length does an incoming req see
system.mem_ctrls.wrQLenPdf::44                     24                       # What write queue length does an incoming req see
system.mem_ctrls.wrQLenPdf::45                     28                       # What write queue length does an incoming req see
system.mem_ctrls.wrQLenPdf::46                     20                       # What write queue length does an incoming req see
system.mem_ctrls.wrQLenPdf::47                     16                       # What write queue length does an incoming req see
system.mem_ctrls.wrQLenPdf::48                     13                       # What write queue length does an incoming req see
system.mem_ctrls.wrQLenPdf::49                     12                       # What write queue length does an incoming req see
system.mem_ctrls.wrQLenPdf::50                     14                       # What write queue length does an incoming req see
system.mem_ctrls.wrQLenPdf::51                     23                       # What write queue length does an incoming req see
system.mem_ctrls.wrQLenPdf::52                     28                       # What write queue length does an incoming req see
system.mem_ctrls.wrQLenPdf::53                     24                       # What write queue length does an incoming req see
system.mem_ctrls.wrQLenPdf::54                     23                       # What write queue length does an incoming req see
system.mem_ctrls.wrQLenPdf::55                     15                       # What write queue length does an incoming req see
system.mem_ctrls.wrQLenPdf::56                     15                       # What write queue length does an incoming req see
system.mem_ctrls.wrQLenPdf::57                     11                       # What write queue length does an incoming req see
system.mem_ctrls.wrQLenPdf::58                      4                       # What write queue length does an incoming req see
system.mem_ctrls.wrQLenPdf::59                      0                       # What write queue length does an incoming req see
system.mem_ctrls.wrQLenPdf::60                      0                       # What write queue length does an incoming req see
system.mem_ctrls.wrQLenPdf::61                      0                       # What write queue length does an incoming req see
system.mem_ctrls.wrQLenPdf::62                      0                       # What write queue length does an incoming req see
system.mem_ctrls.wrQLenPdf::63                      0                       # What write queue length does an incoming req see
system.mem_ctrls.bytesPerActivate::samples      1233413                       # Bytes accessed per row activation
system.mem_ctrls.bytesPerActivate::mean    176.595745                       # Bytes accessed per row activation
system.mem_ctrls.bytesPerActivate::gmean   123.333780                       # Bytes accessed per row activation
system.mem_ctrls.bytesPerActivate::stdev   182.760992                       # Bytes accessed per row activation
system.mem_ctrls.bytesPerActivate::0-127       624917     50.67%     50.67% # Bytes accessed per row activation
system.mem_ctrls.bytesPerActivate::128-255       309899     25.13%     75.79% # Bytes accessed per row activation
system.mem_ctrls.bytesPerActivate::256-383       129314     10.48%     86.28% # Bytes accessed per row activation
system.mem_ctrls.bytesPerActivate::384-511        79560      6.45%     92.73% # Bytes accessed per row activation
system.mem_ctrls.bytesPerActivate::512-639        46399      3.76%     96.49% # Bytes accessed per row activation
system.mem_ctrls.bytesPerActivate::640-767        16683      1.35%     97.84% # Bytes accessed per row activation
system.mem_ctrls.bytesPerActivate::768-895         6114      0.50%     98.34% # Bytes accessed per row activation
system.mem_ctrls.bytesPerActivate::896-1023         3176      0.26%     98.59% # Bytes accessed per row activation
system.mem_ctrls.bytesPerActivate::1024-1151        17351      1.41%    100.00% # Bytes accessed per row activation
system.mem_ctrls.bytesPerActivate::total      1233413                       # Bytes accessed per row activation
system.mem_ctrls.rdPerTurnAround::samples        19555                       # Reads before turning the bus around for writes
system.mem_ctrls.rdPerTurnAround::mean     156.846229                       # Reads before turning the bus around for writes
system.mem_ctrls.rdPerTurnAround::stdev    183.169754                       # Reads before turning the bus around for writes
system.mem_ctrls.rdPerTurnAround::0-1023        19532     99.88%     99.88% # Reads before turning the bus around for writes
system.mem_ctrls.rdPerTurnAround::1024-2047           22      0.11%     99.99% # Reads before turning the bus around for writes
system.mem_ctrls.rdPerTurnAround::17408-18431            1      0.01%    100.00% # Reads before turning the bus around for writes
system.mem_ctrls.rdPerTurnAround::total         19555                       # Reads before turning the bus around for writes
system.mem_ctrls.wrPerTurnAround::samples        19555                       # Writes before turning the bus around for reads
system.mem_ctrls.wrPerTurnAround::mean      17.163948                       # Writes before turning the bus around for reads
system.mem_ctrls.wrPerTurnAround::gmean     17.117902                       # Writes before turning the bus around for reads
system.mem_ctrls.wrPerTurnAround::stdev      1.313232                       # Writes before turning the bus around for reads
system.mem_ctrls.wrPerTurnAround::16-17          9831     50.27%     50.27% # Writes before turning the bus around for reads
system.mem_ctrls.wrPerTurnAround::18-19          9151     46.80%     97.07% # Writes before turning the bus around for reads
system.mem_ctrls.wrPerTurnAround::20-21           500      2.56%     99.63% # Writes before turning the bus around for reads
system.mem_ctrls.wrPerTurnAround::22-23            49      0.25%     99.88% # Writes before turning the bus around for reads
system.mem_ctrls.wrPerTurnAround::24-25            16      0.08%     99.96% # Writes before turning the bus around for reads
system.mem_ctrls.wrPerTurnAround::26-27             1      0.01%     99.96% # Writes before turning the bus around for reads
system.mem_ctrls.wrPerTurnAround::28-29             1      0.01%     99.97% # Writes before turning the bus around for reads
system.mem_ctrls.wrPerTurnAround::30-31             3      0.02%     99.98% # Writes before turning the bus around for reads
system.mem_ctrls.wrPerTurnAround::34-35             1      0.01%     99.99% # Writes before turning the bus around for reads
system.mem_ctrls.wrPerTurnAround::36-37             1      0.01%     99.99% # Writes before turning the bus around for reads
system.mem_ctrls.wrPerTurnAround::64-65             1      0.01%    100.00% # Writes before turning the bus around for reads
system.mem_ctrls.wrPerTurnAround::total         19555                       # Writes before turning the bus around for reads
system.mem_ctrls.totQLat                  90106315222                       # Total ticks spent queuing
system.mem_ctrls.totMemAccLat            147626290222                       # Total ticks spent from burst creation until serviced by the DRAM
system.mem_ctrls.totBusLat                15338660000                       # Total ticks spent in databus transfers
system.mem_ctrls.avgQLat                     29372.29                       # Average queueing delay per DRAM burst
system.mem_ctrls.avgBusLat                    5000.00                       # Average bus latency per DRAM burst
system.mem_ctrls.avgMemAccLat                48122.29                       # Average memory access latency per DRAM burst
system.mem_ctrls.avgRdBW                       537.94                       # Average DRAM read bandwidth in MiByte/s
system.mem_ctrls.avgWrBW                        58.86                       # Average achieved write bandwidth in MiByte/s
system.mem_ctrls.avgRdBWSys                    538.42                       # Average system read bandwidth in MiByte/s
system.mem_ctrls.avgWrBWSys                     58.86                       # Average system write bandwidth in MiByte/s
system.mem_ctrls.peakBW                      12800.00                       # Theoretical peak bandwidth in MiByte/s
system.mem_ctrls.busUtil                         4.66                       # Data bus utilization in percentage
system.mem_ctrls.busUtilRead                     4.20                       # Data bus utilization in percentage for reads
system.mem_ctrls.busUtilWrite                    0.46                       # Data bus utilization in percentage for writes
system.mem_ctrls.avgRdQLen                       2.40                       # Average read queue length when enqueuing
system.mem_ctrls.avgWrQLen                      24.80                       # Average write queue length when enqueuing
system.mem_ctrls.readRowHits                  2071097                       # Number of row buffer hits during reads
system.mem_ctrls.writeRowHits                   98859                       # Number of row buffer hits during writes
system.mem_ctrls.readRowHitRate                 67.51                       # Row buffer hit rate for reads
system.mem_ctrls.writeRowHitRate                29.45                       # Row buffer hit rate for writes
system.mem_ctrls.avgGap                     107151.52                       # Average gap between requests
system.mem_ctrls.pageHitRate                    63.76                       # Row buffer hit rate, read and write combined
system.mem_ctrls.memoryStateTime::IDLE     9078417669                       # Time in different power states
system.mem_ctrls.memoryStateTime::REF     12187240000                       # Time in different power states
system.mem_ctrls.memoryStateTime::PRE_PDN            0                       # Time in different power states
system.mem_ctrls.memoryStateTime::ACT    343707470831                       # Time in different power states
system.mem_ctrls.memoryStateTime::ACT_PDN            0                       # Time in different power states
system.mem_ctrls.actEnergy::0              4722165000                       # Energy for activate commands per rank (pJ)
system.mem_ctrls.actEnergy::1              4602437280                       # Energy for activate commands per rank (pJ)
system.mem_ctrls.preEnergy::0              2576578125                       # Energy for precharge commands per rank (pJ)
system.mem_ctrls.preEnergy::1              2511250500                       # Energy for precharge commands per rank (pJ)
system.mem_ctrls.readEnergy::0            12475249800                       # Energy for read commands per rank (pJ)
system.mem_ctrls.readEnergy::1            11453013000                       # Energy for read commands per rank (pJ)
system.mem_ctrls.writeEnergy::0            1028142720                       # Energy for write commands per rank (pJ)
system.mem_ctrls.writeEnergy::1            1146810960                       # Energy for write commands per rank (pJ)
system.mem_ctrls.refreshEnergy::0         23838241440                       # Energy for refresh commands per rank (pJ)
system.mem_ctrls.refreshEnergy::1         23838241440                       # Energy for refresh commands per rank (pJ)
system.mem_ctrls.actBackEnergy::0        233400677040                       # Energy for active background per rank (pJ)
system.mem_ctrls.actBackEnergy::1        231438666645                       # Energy for active background per rank (pJ)
system.mem_ctrls.preBackEnergy::0         14246329500                       # Energy for precharge background per rank (pJ)
system.mem_ctrls.preBackEnergy::1         15967391250                       # Energy for precharge background per rank (pJ)
system.mem_ctrls.totalEnergy::0          292287383625                       # Total energy per rank (pJ)
system.mem_ctrls.totalEnergy::1          290957811075                       # Total energy per rank (pJ)
system.mem_ctrls.averagePower::0           800.846719                       # Core power per rank (mW)
system.mem_ctrls.averagePower::1           797.203785                       # Core power per rank (mW)
system.cpu_voltage_domain.voltage                   1                       # Voltage in Volts
system.cpu_clk_domain.clock                       500                       # Clock period in ticks
system.tol2bus.trans_dist::ReadReq            6687625                       # Transaction distribution
system.tol2bus.trans_dist::ReadResp           6687590                       # Transaction distribution
system.tol2bus.trans_dist::ReadRespWithInvalidate           35                       # Transaction distribution
system.tol2bus.trans_dist::WriteReq              3274                       # Transaction distribution
system.tol2bus.trans_dist::WriteResp             3274                       # Transaction distribution
system.tol2bus.trans_dist::Writeback           659382                       # Transaction distribution
system.tol2bus.trans_dist::HardPFReq          4869369                       # Transaction distribution
system.tol2bus.trans_dist::HardPFResp               1                       # Transaction distribution
system.tol2bus.trans_dist::WriteInvalidateReq         1264                       # Transaction distribution
system.tol2bus.trans_dist::UpgradeReq          195945                       # Transaction distribution
system.tol2bus.trans_dist::SCUpgradeReq         39507                       # Transaction distribution
system.tol2bus.trans_dist::UpgradeResp         235452                       # Transaction distribution
system.tol2bus.trans_dist::SCUpgradeFailReq         2186                       # Transaction distribution
system.tol2bus.trans_dist::UpgradeFailResp         2186                       # Transaction distribution
system.tol2bus.trans_dist::ReadExReq           365421                       # Transaction distribution
system.tol2bus.trans_dist::ReadExResp          365421                       # Transaction distribution
system.tol2bus.pkt_count_system.cpu0.icache.mem_side::system.l2.cpu_side       251150                       # Packet count per connected master and slave (bytes)
system.tol2bus.pkt_count_system.cpu0.dcache.mem_side::system.l2.cpu_side      1102694                       # Packet count per connected master and slave (bytes)
system.tol2bus.pkt_count_system.cpu0.itb.walker.dma::system.l2.cpu_side        16590                       # Packet count per connected master and slave (bytes)
system.tol2bus.pkt_count_system.cpu0.dtb.walker.dma::system.l2.cpu_side       299282                       # Packet count per connected master and slave (bytes)
system.tol2bus.pkt_count_system.cpu1.icache.mem_side::system.l2.cpu_side       272935                       # Packet count per connected master and slave (bytes)
system.tol2bus.pkt_count_system.cpu1.dcache.mem_side::system.l2.cpu_side       946025                       # Packet count per connected master and slave (bytes)
system.tol2bus.pkt_count_system.cpu1.itb.walker.dma::system.l2.cpu_side        11776                       # Packet count per connected master and slave (bytes)
system.tol2bus.pkt_count_system.cpu1.dtb.walker.dma::system.l2.cpu_side       291991                       # Packet count per connected master and slave (bytes)
system.tol2bus.pkt_count_system.cpu2.icache.mem_side::system.l2.cpu_side       338192                       # Packet count per connected master and slave (bytes)
system.tol2bus.pkt_count_system.cpu2.dcache.mem_side::system.l2.cpu_side      1050207                       # Packet count per connected master and slave (bytes)
system.tol2bus.pkt_count_system.cpu2.itb.walker.dma::system.l2.cpu_side        16258                       # Packet count per connected master and slave (bytes)
system.tol2bus.pkt_count_system.cpu2.dtb.walker.dma::system.l2.cpu_side       297454                       # Packet count per connected master and slave (bytes)
system.tol2bus.pkt_count_system.cpu3.icache.mem_side::system.l2.cpu_side       497833                       # Packet count per connected master and slave (bytes)
system.tol2bus.pkt_count_system.cpu3.dcache.mem_side::system.l2.cpu_side      1262917                       # Packet count per connected master and slave (bytes)
system.tol2bus.pkt_count_system.cpu3.itb.walker.dma::system.l2.cpu_side        23657                       # Packet count per connected master and slave (bytes)
system.tol2bus.pkt_count_system.cpu3.dtb.walker.dma::system.l2.cpu_side       318818                       # Packet count per connected master and slave (bytes)
system.tol2bus.pkt_count_system.cpu4.icache.mem_side::system.l2.cpu_side       362077                       # Packet count per connected master and slave (bytes)
system.tol2bus.pkt_count_system.cpu4.dcache.mem_side::system.l2.cpu_side      1087599                       # Packet count per connected master and slave (bytes)
system.tol2bus.pkt_count_system.cpu4.itb.walker.dma::system.l2.cpu_side        22281                       # Packet count per connected master and slave (bytes)
system.tol2bus.pkt_count_system.cpu4.dtb.walker.dma::system.l2.cpu_side       303188                       # Packet count per connected master and slave (bytes)
system.tol2bus.pkt_count_system.cpu5.icache.mem_side::system.l2.cpu_side       301009                       # Packet count per connected master and slave (bytes)
system.tol2bus.pkt_count_system.cpu5.dcache.mem_side::system.l2.cpu_side      1023817                       # Packet count per connected master and slave (bytes)
system.tol2bus.pkt_count_system.cpu5.itb.walker.dma::system.l2.cpu_side        19076                       # Packet count per connected master and slave (bytes)
system.tol2bus.pkt_count_system.cpu5.dtb.walker.dma::system.l2.cpu_side       299302                       # Packet count per connected master and slave (bytes)
system.tol2bus.pkt_count_system.cpu6.icache.mem_side::system.l2.cpu_side       916129                       # Packet count per connected master and slave (bytes)
system.tol2bus.pkt_count_system.cpu6.dcache.mem_side::system.l2.cpu_side      1447643                       # Packet count per connected master and slave (bytes)
system.tol2bus.pkt_count_system.cpu6.itb.walker.dma::system.l2.cpu_side        30193                       # Packet count per connected master and slave (bytes)
system.tol2bus.pkt_count_system.cpu6.dtb.walker.dma::system.l2.cpu_side       360496                       # Packet count per connected master and slave (bytes)
system.tol2bus.pkt_count_system.cpu7.icache.mem_side::system.l2.cpu_side       205232                       # Packet count per connected master and slave (bytes)
system.tol2bus.pkt_count_system.cpu7.dcache.mem_side::system.l2.cpu_side       928840                       # Packet count per connected master and slave (bytes)
system.tol2bus.pkt_count_system.cpu7.itb.walker.dma::system.l2.cpu_side        12860                       # Packet count per connected master and slave (bytes)
system.tol2bus.pkt_count_system.cpu7.dtb.walker.dma::system.l2.cpu_side       281768                       # Packet count per connected master and slave (bytes)
system.tol2bus.pkt_count::total              14599289                       # Packet count per connected master and slave (bytes)
system.tol2bus.pkt_size_system.cpu0.icache.mem_side::system.l2.cpu_side      8036736                       # Cumulative packet size per connected master and slave (bytes)
system.tol2bus.pkt_size_system.cpu0.dcache.mem_side::system.l2.cpu_side     35925313                       # Cumulative packet size per connected master and slave (bytes)
system.tol2bus.pkt_size_system.cpu0.itb.walker.dma::system.l2.cpu_side        28720                       # Cumulative packet size per connected master and slave (bytes)
system.tol2bus.pkt_size_system.cpu0.dtb.walker.dma::system.l2.cpu_side       584408                       # Cumulative packet size per connected master and slave (bytes)
system.tol2bus.pkt_size_system.cpu1.icache.mem_side::system.l2.cpu_side      8733888                       # Cumulative packet size per connected master and slave (bytes)
system.tol2bus.pkt_size_system.cpu1.dcache.mem_side::system.l2.cpu_side     29582361                       # Cumulative packet size per connected master and slave (bytes)
system.tol2bus.pkt_size_system.cpu1.itb.walker.dma::system.l2.cpu_side        18152                       # Cumulative packet size per connected master and slave (bytes)
system.tol2bus.pkt_size_system.cpu1.dtb.walker.dma::system.l2.cpu_side       568036                       # Cumulative packet size per connected master and slave (bytes)
system.tol2bus.pkt_size_system.cpu2.icache.mem_side::system.l2.cpu_side     10821376                       # Cumulative packet size per connected master and slave (bytes)
system.tol2bus.pkt_size_system.cpu2.dcache.mem_side::system.l2.cpu_side     33632300                       # Cumulative packet size per connected master and slave (bytes)
system.tol2bus.pkt_size_system.cpu2.itb.walker.dma::system.l2.cpu_side        29000                       # Cumulative packet size per connected master and slave (bytes)
system.tol2bus.pkt_size_system.cpu2.dtb.walker.dma::system.l2.cpu_side       583544                       # Cumulative packet size per connected master and slave (bytes)
system.tol2bus.pkt_size_system.cpu3.icache.mem_side::system.l2.cpu_side     15930624                       # Cumulative packet size per connected master and slave (bytes)
system.tol2bus.pkt_size_system.cpu3.dcache.mem_side::system.l2.cpu_side     41260332                       # Cumulative packet size per connected master and slave (bytes)
system.tol2bus.pkt_size_system.cpu3.itb.walker.dma::system.l2.cpu_side        31312                       # Cumulative packet size per connected master and slave (bytes)
system.tol2bus.pkt_size_system.cpu3.dtb.walker.dma::system.l2.cpu_side       600200                       # Cumulative packet size per connected master and slave (bytes)
system.tol2bus.pkt_size_system.cpu4.icache.mem_side::system.l2.cpu_side     11585856                       # Cumulative packet size per connected master and slave (bytes)
system.tol2bus.pkt_size_system.cpu4.dcache.mem_side::system.l2.cpu_side     34798302                       # Cumulative packet size per connected master and slave (bytes)
system.tol2bus.pkt_size_system.cpu4.itb.walker.dma::system.l2.cpu_side        34632                       # Cumulative packet size per connected master and slave (bytes)
system.tol2bus.pkt_size_system.cpu4.dtb.walker.dma::system.l2.cpu_side       587624                       # Cumulative packet size per connected master and slave (bytes)
system.tol2bus.pkt_size_system.cpu5.icache.mem_side::system.l2.cpu_side      9632064                       # Cumulative packet size per connected master and slave (bytes)
system.tol2bus.pkt_size_system.cpu5.dcache.mem_side::system.l2.cpu_side     32242876                       # Cumulative packet size per connected master and slave (bytes)
system.tol2bus.pkt_size_system.cpu5.itb.walker.dma::system.l2.cpu_side        26748                       # Cumulative packet size per connected master and slave (bytes)
system.tol2bus.pkt_size_system.cpu5.dtb.walker.dma::system.l2.cpu_side       577804                       # Cumulative packet size per connected master and slave (bytes)
system.tol2bus.pkt_size_system.cpu6.icache.mem_side::system.l2.cpu_side     29316032                       # Cumulative packet size per connected master and slave (bytes)
system.tol2bus.pkt_size_system.cpu6.dcache.mem_side::system.l2.cpu_side     48095047                       # Cumulative packet size per connected master and slave (bytes)
system.tol2bus.pkt_size_system.cpu6.itb.walker.dma::system.l2.cpu_side        43184                       # Cumulative packet size per connected master and slave (bytes)
system.tol2bus.pkt_size_system.cpu6.dtb.walker.dma::system.l2.cpu_side       656920                       # Cumulative packet size per connected master and slave (bytes)
system.tol2bus.pkt_size_system.cpu7.icache.mem_side::system.l2.cpu_side      6567296                       # Cumulative packet size per connected master and slave (bytes)
system.tol2bus.pkt_size_system.cpu7.dcache.mem_side::system.l2.cpu_side     29007740                       # Cumulative packet size per connected master and slave (bytes)
system.tol2bus.pkt_size_system.cpu7.itb.walker.dma::system.l2.cpu_side        20472                       # Cumulative packet size per connected master and slave (bytes)
system.tol2bus.pkt_size_system.cpu7.dtb.walker.dma::system.l2.cpu_side       553008                       # Cumulative packet size per connected master and slave (bytes)
system.tol2bus.pkt_size::total              390111907                       # Cumulative packet size per connected master and slave (bytes)
system.tol2bus.snoops                         5518666                       # Total snoops (count)
system.tol2bus.snoop_fanout::samples         12839054                       # Request fanout histogram
system.tol2bus.snoop_fanout::mean           47.379362                       # Request fanout histogram
system.tol2bus.snoop_fanout::stdev           0.485228                       # Request fanout histogram
system.tol2bus.snoop_fanout::underflows             0      0.00%      0.00% # Request fanout histogram
system.tol2bus.snoop_fanout::0                      0      0.00%      0.00% # Request fanout histogram
system.tol2bus.snoop_fanout::1                      0      0.00%      0.00% # Request fanout histogram
system.tol2bus.snoop_fanout::2                      0      0.00%      0.00% # Request fanout histogram
system.tol2bus.snoop_fanout::3                      0      0.00%      0.00% # Request fanout histogram
system.tol2bus.snoop_fanout::4                      0      0.00%      0.00% # Request fanout histogram
system.tol2bus.snoop_fanout::5                      0      0.00%      0.00% # Request fanout histogram
system.tol2bus.snoop_fanout::6                      0      0.00%      0.00% # Request fanout histogram
system.tol2bus.snoop_fanout::7                      0      0.00%      0.00% # Request fanout histogram
system.tol2bus.snoop_fanout::8                      0      0.00%      0.00% # Request fanout histogram
system.tol2bus.snoop_fanout::9                      0      0.00%      0.00% # Request fanout histogram
system.tol2bus.snoop_fanout::10                     0      0.00%      0.00% # Request fanout histogram
system.tol2bus.snoop_fanout::11                     0      0.00%      0.00% # Request fanout histogram
system.tol2bus.snoop_fanout::12                     0      0.00%      0.00% # Request fanout histogram
system.tol2bus.snoop_fanout::13                     0      0.00%      0.00% # Request fanout histogram
system.tol2bus.snoop_fanout::14                     0      0.00%      0.00% # Request fanout histogram
system.tol2bus.snoop_fanout::15                     0      0.00%      0.00% # Request fanout histogram
system.tol2bus.snoop_fanout::16                     0      0.00%      0.00% # Request fanout histogram
system.tol2bus.snoop_fanout::17                     0      0.00%      0.00% # Request fanout histogram
system.tol2bus.snoop_fanout::18                     0      0.00%      0.00% # Request fanout histogram
system.tol2bus.snoop_fanout::19                     0      0.00%      0.00% # Request fanout histogram
system.tol2bus.snoop_fanout::20                     0      0.00%      0.00% # Request fanout histogram
system.tol2bus.snoop_fanout::21                     0      0.00%      0.00% # Request fanout histogram
system.tol2bus.snoop_fanout::22                     0      0.00%      0.00% # Request fanout histogram
system.tol2bus.snoop_fanout::23                     0      0.00%      0.00% # Request fanout histogram
system.tol2bus.snoop_fanout::24                     0      0.00%      0.00% # Request fanout histogram
system.tol2bus.snoop_fanout::25                     0      0.00%      0.00% # Request fanout histogram
system.tol2bus.snoop_fanout::26                     0      0.00%      0.00% # Request fanout histogram
system.tol2bus.snoop_fanout::27                     0      0.00%      0.00% # Request fanout histogram
system.tol2bus.snoop_fanout::28                     0      0.00%      0.00% # Request fanout histogram
system.tol2bus.snoop_fanout::29                     0      0.00%      0.00% # Request fanout histogram
system.tol2bus.snoop_fanout::30                     0      0.00%      0.00% # Request fanout histogram
system.tol2bus.snoop_fanout::31                     0      0.00%      0.00% # Request fanout histogram
system.tol2bus.snoop_fanout::32                     0      0.00%      0.00% # Request fanout histogram
system.tol2bus.snoop_fanout::33                     0      0.00%      0.00% # Request fanout histogram
system.tol2bus.snoop_fanout::34                     0      0.00%      0.00% # Request fanout histogram
system.tol2bus.snoop_fanout::35                     0      0.00%      0.00% # Request fanout histogram
system.tol2bus.snoop_fanout::36                     0      0.00%      0.00% # Request fanout histogram
system.tol2bus.snoop_fanout::37                     0      0.00%      0.00% # Request fanout histogram
system.tol2bus.snoop_fanout::38                     0      0.00%      0.00% # Request fanout histogram
system.tol2bus.snoop_fanout::39                     0      0.00%      0.00% # Request fanout histogram
system.tol2bus.snoop_fanout::40                     0      0.00%      0.00% # Request fanout histogram
system.tol2bus.snoop_fanout::41                     0      0.00%      0.00% # Request fanout histogram
system.tol2bus.snoop_fanout::42                     0      0.00%      0.00% # Request fanout histogram
system.tol2bus.snoop_fanout::43                     0      0.00%      0.00% # Request fanout histogram
system.tol2bus.snoop_fanout::44                     0      0.00%      0.00% # Request fanout histogram
system.tol2bus.snoop_fanout::45                     0      0.00%      0.00% # Request fanout histogram
system.tol2bus.snoop_fanout::46                     0      0.00%      0.00% # Request fanout histogram
system.tol2bus.snoop_fanout::47               7968399     62.06%     62.06% # Request fanout histogram
system.tol2bus.snoop_fanout::48               4870655     37.94%    100.00% # Request fanout histogram
system.tol2bus.snoop_fanout::overflows              0      0.00%    100.00% # Request fanout histogram
system.tol2bus.snoop_fanout::min_value             47                       # Request fanout histogram
system.tol2bus.snoop_fanout::max_value             48                       # Request fanout histogram
system.tol2bus.snoop_fanout::total           12839054                       # Request fanout histogram
system.tol2bus.reqLayer0.occupancy         4661926920                       # Layer occupancy (ticks)
system.tol2bus.reqLayer0.utilization              1.3                       # Layer utilization (%)
system.tol2bus.snoopLayer0.occupancy            34500                       # Layer occupancy (ticks)
system.tol2bus.snoopLayer0.utilization            0.0                       # Layer utilization (%)
system.tol2bus.respLayer0.occupancy         189955844                       # Layer occupancy (ticks)
system.tol2bus.respLayer0.utilization             0.1                       # Layer utilization (%)
system.tol2bus.respLayer1.occupancy         775930896                       # Layer occupancy (ticks)
system.tol2bus.respLayer1.utilization             0.2                       # Layer utilization (%)
system.tol2bus.respLayer2.occupancy           9458421                       # Layer occupancy (ticks)
system.tol2bus.respLayer2.utilization             0.0                       # Layer utilization (%)
system.tol2bus.respLayer3.occupancy         153426129                       # Layer occupancy (ticks)
system.tol2bus.respLayer3.utilization             0.0                       # Layer utilization (%)
system.tol2bus.respLayer6.occupancy         206430931                       # Layer occupancy (ticks)
system.tol2bus.respLayer6.utilization             0.1                       # Layer utilization (%)
system.tol2bus.respLayer7.occupancy         699278113                       # Layer occupancy (ticks)
system.tol2bus.respLayer7.utilization             0.2                       # Layer utilization (%)
system.tol2bus.respLayer8.occupancy           7257688                       # Layer occupancy (ticks)
system.tol2bus.respLayer8.utilization             0.0                       # Layer utilization (%)
system.tol2bus.respLayer9.occupancy         150198102                       # Layer occupancy (ticks)
system.tol2bus.respLayer9.utilization             0.0                       # Layer utilization (%)
system.tol2bus.respLayer12.occupancy        255278438                       # Layer occupancy (ticks)
system.tol2bus.respLayer12.utilization            0.1                       # Layer utilization (%)
system.tol2bus.respLayer13.occupancy        757848414                       # Layer occupancy (ticks)
system.tol2bus.respLayer13.utilization            0.2                       # Layer utilization (%)
system.tol2bus.respLayer14.occupancy          9047689                       # Layer occupancy (ticks)
system.tol2bus.respLayer14.utilization            0.0                       # Layer utilization (%)
system.tol2bus.respLayer15.occupancy        151794634                       # Layer occupancy (ticks)
system.tol2bus.respLayer15.utilization            0.0                       # Layer utilization (%)
system.tol2bus.respLayer18.occupancy        375571792                       # Layer occupancy (ticks)
system.tol2bus.respLayer18.utilization            0.1                       # Layer utilization (%)
system.tol2bus.respLayer19.occupancy        890691336                       # Layer occupancy (ticks)
system.tol2bus.respLayer19.utilization            0.2                       # Layer utilization (%)
system.tol2bus.respLayer20.occupancy         15873177                       # Layer occupancy (ticks)
system.tol2bus.respLayer20.utilization            0.0                       # Layer utilization (%)
system.tol2bus.respLayer21.occupancy        169027086                       # Layer occupancy (ticks)
system.tol2bus.respLayer21.utilization            0.0                       # Layer utilization (%)
system.tol2bus.respLayer24.occupancy        273885562                       # Layer occupancy (ticks)
system.tol2bus.respLayer24.utilization            0.1                       # Layer utilization (%)
system.tol2bus.respLayer25.occupancy        782218755                       # Layer occupancy (ticks)
system.tol2bus.respLayer25.utilization            0.2                       # Layer utilization (%)
system.tol2bus.respLayer26.occupancy         13710416                       # Layer occupancy (ticks)
system.tol2bus.respLayer26.utilization            0.0                       # Layer utilization (%)
system.tol2bus.respLayer27.occupancy        156547905                       # Layer occupancy (ticks)
system.tol2bus.respLayer27.utilization            0.0                       # Layer utilization (%)
system.tol2bus.respLayer30.occupancy        227740223                       # Layer occupancy (ticks)
system.tol2bus.respLayer30.utilization            0.1                       # Layer utilization (%)
system.tol2bus.respLayer31.occupancy        747866310                       # Layer occupancy (ticks)
system.tol2bus.respLayer31.utilization            0.2                       # Layer utilization (%)
system.tol2bus.respLayer32.occupancy         12433935                       # Layer occupancy (ticks)
system.tol2bus.respLayer32.utilization            0.0                       # Layer utilization (%)
system.tol2bus.respLayer33.occupancy        155098631                       # Layer occupancy (ticks)
system.tol2bus.respLayer33.utilization            0.0                       # Layer utilization (%)
system.tol2bus.respLayer36.occupancy        689902117                       # Layer occupancy (ticks)
system.tol2bus.respLayer36.utilization            0.2                       # Layer utilization (%)
system.tol2bus.respLayer37.occupancy       1006950695                       # Layer occupancy (ticks)
system.tol2bus.respLayer37.utilization            0.3                       # Layer utilization (%)
system.tol2bus.respLayer38.occupancy         19440426                       # Layer occupancy (ticks)
system.tol2bus.respLayer38.utilization            0.0                       # Layer utilization (%)
system.tol2bus.respLayer39.occupancy        196527899                       # Layer occupancy (ticks)
system.tol2bus.respLayer39.utilization            0.1                       # Layer utilization (%)
system.tol2bus.respLayer42.occupancy        155597799                       # Layer occupancy (ticks)
system.tol2bus.respLayer42.utilization            0.0                       # Layer utilization (%)
system.tol2bus.respLayer43.occupancy        685764327                       # Layer occupancy (ticks)
system.tol2bus.respLayer43.utilization            0.2                       # Layer utilization (%)
system.tol2bus.respLayer44.occupancy          7776674                       # Layer occupancy (ticks)
system.tol2bus.respLayer44.utilization            0.0                       # Layer utilization (%)
system.tol2bus.respLayer45.occupancy        143734395                       # Layer occupancy (ticks)
system.tol2bus.respLayer45.utilization            0.0                       # Layer utilization (%)
system.membus.trans_dist::ReadReq             3047573                       # Transaction distribution
system.membus.trans_dist::ReadResp            3047573                       # Transaction distribution
[...]
system.cpu7.dcache.LoadLockedReq_mshr_miss_latency::switch_cpus7.data     20638934                       # number of LoadLockedReq MSHR miss cycles
system.cpu7.dcache.LoadLockedReq_mshr_miss_latency::total     20638934                       # number of LoadLockedReq MSHR miss cycles
system.cpu7.dcache.StoreCondReq_mshr_miss_latency::switch_cpus7.data     19100051                       # number of StoreCondReq MSHR miss cycles
system.cpu7.dcache.StoreCondReq_mshr_miss_latency::total     19100051                       # number of StoreCondReq MSHR miss cycles
system.cpu7.dcache.StoreCondFailReq_mshr_miss_latency::switch_cpus7.data      1216500                       # number of StoreCondFailReq MSHR miss cycles
system.cpu7.dcache.StoreCondFailReq_mshr_miss_latency::total      1216500                       # number of StoreCondFailReq MSHR miss cycles
system.cpu7.dcache.demand_mshr_miss_latency::switch_cpus7.data   5797683624                       # number of demand (read+write) MSHR miss cycles
system.cpu7.dcache.demand_mshr_miss_latency::total   5797683624                       # number of demand (read+write) MSHR miss cycles
system.cpu7.dcache.overall_mshr_miss_latency::switch_cpus7.data   6204387939                       # number of overall MSHR miss cycles
system.cpu7.dcache.overall_mshr_miss_latency::total   6204387939                       # number of overall MSHR miss cycles
system.cpu7.dcache.ReadReq_mshr_uncacheable_latency::switch_cpus7.data     13053994                       # number of ReadReq MSHR uncacheable cycles
system.cpu7.dcache.ReadReq_mshr_uncacheable_latency::total     13053994                       # number of ReadReq MSHR uncacheable cycles
system.cpu7.dcache.WriteReq_mshr_uncacheable_latency::switch_cpus7.data      9832993                       # number of WriteReq MSHR uncacheable cycles
system.cpu7.dcache.WriteReq_mshr_uncacheable_latency::total      9832993                       # number of WriteReq MSHR uncacheable cycles
system.cpu7.dcache.overall_mshr_uncacheable_latency::switch_cpus7.data     22886987                       # number of overall MSHR uncacheable cycles
system.cpu7.dcache.overall_mshr_uncacheable_latency::total     22886987                       # number of overall MSHR uncacheable cycles
system.cpu7.dcache.ReadReq_mshr_miss_rate::switch_cpus7.data     0.005095                       # mshr miss rate for ReadReq accesses
system.cpu7.dcache.ReadReq_mshr_miss_rate::total     0.005095                       # mshr miss rate for ReadReq accesses
system.cpu7.dcache.WriteReq_mshr_miss_rate::switch_cpus7.data     0.003148                       # mshr miss rate for WriteReq accesses
system.cpu7.dcache.WriteReq_mshr_miss_rate::total     0.003148                       # mshr miss rate for WriteReq accesses
system.cpu7.dcache.SoftPFReq_mshr_miss_rate::switch_cpus7.data     0.450455                       # mshr miss rate for SoftPFReq accesses
system.cpu7.dcache.SoftPFReq_mshr_miss_rate::total     0.450455                       # mshr miss rate for SoftPFReq accesses
system.cpu7.dcache.LoadLockedReq_mshr_miss_rate::switch_cpus7.data     0.069394                       # mshr miss rate for LoadLockedReq accesses
system.cpu7.dcache.LoadLockedReq_mshr_miss_rate::total     0.069394                       # mshr miss rate for LoadLockedReq accesses
system.cpu7.dcache.StoreCondReq_mshr_miss_rate::switch_cpus7.data     0.168957                       # mshr miss rate for StoreCondReq accesses
system.cpu7.dcache.StoreCondReq_mshr_miss_rate::total     0.168957                       # mshr miss rate for StoreCondReq accesses
system.cpu7.dcache.demand_mshr_miss_rate::switch_cpus7.data     0.004820                       # mshr miss rate for demand accesses
system.cpu7.dcache.demand_mshr_miss_rate::total     0.004820                       # mshr miss rate for demand accesses
system.cpu7.dcache.overall_mshr_miss_rate::switch_cpus7.data     0.004944                       # mshr miss rate for overall accesses
system.cpu7.dcache.overall_mshr_miss_rate::total     0.004944                       # mshr miss rate for overall accesses
system.cpu7.dcache.ReadReq_avg_mshr_miss_latency::switch_cpus7.data 12976.035161                       # average ReadReq mshr miss latency
system.cpu7.dcache.ReadReq_avg_mshr_miss_latency::total 12976.035161                       # average ReadReq mshr miss latency
system.cpu7.dcache.WriteReq_avg_mshr_miss_latency::switch_cpus7.data 11394.432231                       # average WriteReq mshr miss latency
system.cpu7.dcache.WriteReq_avg_mshr_miss_latency::total 11394.432231                       # average WriteReq mshr miss latency
system.cpu7.dcache.SoftPFReq_avg_mshr_miss_latency::switch_cpus7.data 34489.850322                       # average SoftPFReq mshr miss latency
system.cpu7.dcache.SoftPFReq_avg_mshr_miss_latency::total 34489.850322                       # average SoftPFReq mshr miss latency
system.cpu7.dcache.LoadLockedReq_avg_mshr_miss_latency::switch_cpus7.data 10578.643772                       # average LoadLockedReq mshr miss latency
system.cpu7.dcache.LoadLockedReq_avg_mshr_miss_latency::total 10578.643772                       # average LoadLockedReq mshr miss latency
system.cpu7.dcache.StoreCondReq_avg_mshr_miss_latency::switch_cpus7.data  4502.605139                       # average StoreCondReq mshr miss latency
system.cpu7.dcache.StoreCondReq_avg_mshr_miss_latency::total  4502.605139                       # average StoreCondReq mshr miss latency
system.cpu7.dcache.StoreCondFailReq_avg_mshr_miss_latency::switch_cpus7.data          inf                       # average StoreCondFailReq mshr miss latency
system.cpu7.dcache.StoreCondFailReq_avg_mshr_miss_latency::total          inf                       # average StoreCondFailReq mshr miss latency
system.cpu7.dcache.demand_avg_mshr_miss_latency::switch_cpus7.data 12829.827600                       # average overall mshr miss latency
system.cpu7.dcache.demand_avg_mshr_miss_latency::total 12829.827600                       # average overall mshr miss latency
system.cpu7.dcache.overall_avg_mshr_miss_latency::switch_cpus7.data 13380.667264                       # average overall mshr miss latency
system.cpu7.dcache.overall_avg_mshr_miss_latency::total 13380.667264                       # average overall mshr miss latency
system.cpu7.dcache.ReadReq_avg_mshr_uncacheable_latency::switch_cpus7.data          inf                       # average ReadReq mshr uncacheable latency
system.cpu7.dcache.ReadReq_avg_mshr_uncacheable_latency::total          inf                       # average ReadReq mshr uncacheable latency
system.cpu7.dcache.WriteReq_avg_mshr_uncacheable_latency::switch_cpus7.data          inf                       # average WriteReq mshr uncacheable latency
system.cpu7.dcache.WriteReq_avg_mshr_uncacheable_latency::total          inf                       # average WriteReq mshr uncacheable latency
system.cpu7.dcache.overall_avg_mshr_uncacheable_latency::switch_cpus7.data          inf                       # average overall mshr uncacheable latency
system.cpu7.dcache.overall_avg_mshr_uncacheable_latency::total          inf                       # average overall mshr uncacheable latency
system.cpu7.dcache.no_allocate_misses               0                       # Number of misses that were no-allocate
system.iocache.tags.replacements                 1270                       # number of replacements
system.iocache.tags.tagsinuse               15.178062                       # Cycle average of tags in use
system.iocache.tags.total_refs                      0                       # Total number of references to valid blocks.
system.iocache.tags.sampled_refs                 1286                       # Sample count of references to valid blocks.
system.iocache.tags.avg_refs                        0                       # Average number of references to valid blocks.
system.iocache.tags.warmup_cycle         3251005552000                       # Cycle when the warmup percentage was hit.
system.iocache.tags.occ_blocks::realview.ide    15.178062                       # Average occupied blocks per requestor
system.iocache.tags.occ_percent::realview.ide     0.948629                       # Average percentage of cache occupancy
system.iocache.tags.occ_percent::total       0.948629                       # Average percentage of cache occupancy
system.iocache.tags.occ_task_id_blocks::1023           16                       # Occupied blocks per task id
system.iocache.tags.age_task_id_blocks_1023::4           16                       # Occupied blocks per task id
system.iocache.tags.occ_task_id_percent::1023            1                       # Percentage of cache occupancy per task id
system.iocache.tags.tag_accesses                11574                       # Number of tag accesses
system.iocache.tags.data_accesses               11574                       # Number of data accesses
system.iocache.WriteInvalidateReq_hits::realview.ide         1264                       # number of WriteInvalidateReq hits
system.iocache.WriteInvalidateReq_hits::total         1264                       # number of WriteInvalidateReq hits
system.iocache.ReadReq_misses::realview.ide           22                       # number of ReadReq misses
system.iocache.ReadReq_misses::total               22                       # number of ReadReq misses
system.iocache.demand_misses::realview.ide           22                       # number of demand (read+write) misses
system.iocache.demand_misses::total                22                       # number of demand (read+write) misses
system.iocache.overall_misses::realview.ide           22                       # number of overall misses
system.iocache.overall_misses::total               22                       # number of overall misses
system.iocache.ReadReq_miss_latency::realview.ide      2416991                       # number of ReadReq miss cycles
system.iocache.ReadReq_miss_latency::total      2416991                       # number of ReadReq miss cycles
system.iocache.demand_miss_latency::realview.ide      2416991                       # number of demand (read+write) miss cycles
system.iocache.demand_miss_latency::total      2416991                       # number of demand (read+write) miss cycles
system.iocache.overall_miss_latency::realview.ide      2416991                       # number of overall miss cycles
system.iocache.overall_miss_latency::total      2416991                       # number of overall miss cycles
system.iocache.ReadReq_accesses::realview.ide           22                       # number of ReadReq accesses(hits+misses)
system.iocache.ReadReq_accesses::total             22                       # number of ReadReq accesses(hits+misses)
system.iocache.WriteInvalidateReq_accesses::realview.ide         1264                       # number of WriteInvalidateReq accesses(hits+misses)
system.iocache.WriteInvalidateReq_accesses::total         1264                       # number of WriteInvalidateReq accesses(hits+misses)
system.iocache.demand_accesses::realview.ide           22                       # number of demand (read+write) accesses
system.iocache.demand_accesses::total              22                       # number of demand (read+write) accesses
system.iocache.overall_accesses::realview.ide           22                       # number of overall (read+write) accesses
system.iocache.overall_accesses::total             22                       # number of overall (read+write) accesses
system.iocache.ReadReq_miss_rate::realview.ide            1                       # miss rate for ReadReq accesses
system.iocache.ReadReq_miss_rate::total             1                       # miss rate for ReadReq accesses
system.iocache.demand_miss_rate::realview.ide            1                       # miss rate for demand accesses
system.iocache.demand_miss_rate::total              1                       # miss rate for demand accesses
system.iocache.overall_miss_rate::realview.ide            1                       # miss rate for overall accesses
system.iocache.overall_miss_rate::total             1                       # miss rate for overall accesses
system.iocache.ReadReq_avg_miss_latency::realview.ide 109863.227273                       # average ReadReq miss latency
system.iocache.ReadReq_avg_miss_latency::total 109863.227273                       # average ReadReq miss latency
system.iocache.demand_avg_miss_latency::realview.ide 109863.227273                       # average overall miss latency
system.iocache.demand_avg_miss_latency::total 109863.227273                       # average overall miss latency
system.iocache.overall_avg_miss_latency::realview.ide 109863.227273                       # average overall miss latency
system.iocache.overall_avg_miss_latency::total 109863.227273                       # average overall miss latency
system.iocache.blocked_cycles::no_mshrs             0                       # number of cycles access was blocked
system.iocache.blocked_cycles::no_targets            0                       # number of cycles access was blocked
system.iocache.blocked::no_mshrs                    0                       # number of cycles access was blocked
system.iocache.blocked::no_targets                  0                       # number of cycles access was blocked
system.iocache.avg_blocked_cycles::no_mshrs          nan                       # average number of cycles each access was blocked
system.iocache.avg_blocked_cycles::no_targets          nan                       # average number of cycles each access was blocked
system.iocache.fast_writes                       1264                       # number of fast writes performed
system.iocache.cache_copies                         0                       # number of cache copies performed
system.iocache.ReadReq_mshr_misses::realview.ide           22                       # number of ReadReq MSHR misses
system.iocache.ReadReq_mshr_misses::total           22                       # number of ReadReq MSHR misses
system.iocache.WriteInvalidateReq_mshr_misses::realview.ide         1264                       # number of WriteInvalidateReq MSHR misses
system.iocache.WriteInvalidateReq_mshr_misses::total         1264                       # number of WriteInvalidateReq MSHR misses
system.iocache.demand_mshr_misses::realview.ide           22                       # number of demand (read+write) MSHR misses
system.iocache.demand_mshr_misses::total           22                       # number of demand (read+write) MSHR misses
system.iocache.overall_mshr_misses::realview.ide           22                       # number of overall MSHR misses
system.iocache.overall_mshr_misses::total           22                       # number of overall MSHR misses
system.iocache.ReadReq_mshr_miss_latency::realview.ide      1272991                       # number of ReadReq MSHR miss cycles
system.iocache.ReadReq_mshr_miss_latency::total      1272991                       # number of ReadReq MSHR miss cycles
system.iocache.WriteInvalidateReq_mshr_miss_latency::realview.ide     92283915                       # number of WriteInvalidateReq MSHR miss cycles
system.iocache.WriteInvalidateReq_mshr_miss_latency::total     92283915                       # number of WriteInvalidateReq MSHR miss cycles
system.iocache.demand_mshr_miss_latency::realview.ide      1272991                       # number of demand (read+write) MSHR miss cycles
system.iocache.demand_mshr_miss_latency::total      1272991                       # number of demand (read+write) MSHR miss cycles
system.iocache.overall_mshr_miss_latency::realview.ide      1272991                       # number of overall MSHR miss cycles
system.iocache.overall_mshr_miss_latency::total      1272991                       # number of overall MSHR miss cycles
system.iocache.ReadReq_mshr_miss_rate::realview.ide            1                       # mshr miss rate for ReadReq accesses
system.iocache.ReadReq_mshr_miss_rate::total            1                       # mshr miss rate for ReadReq accesses
system.iocache.WriteInvalidateReq_mshr_miss_rate::realview.ide            1                       # mshr miss rate for WriteInvalidateReq accesses
system.iocache.WriteInvalidateReq_mshr_miss_rate::total            1                       # mshr miss rate for WriteInvalidateReq accesses
system.iocache.demand_mshr_miss_rate::realview.ide            1                       # mshr miss rate for demand accesses
system.iocache.demand_mshr_miss_rate::total            1                       # mshr miss rate for demand accesses
system.iocache.overall_mshr_miss_rate::realview.ide            1                       # mshr miss rate for overall accesses
system.iocache.overall_mshr_miss_rate::total            1                       # mshr miss rate for overall accesses
system.iocache.ReadReq_avg_mshr_miss_latency::realview.ide 57863.227273                       # average ReadReq mshr miss latency
system.iocache.ReadReq_avg_mshr_miss_latency::total 57863.227273                       # average ReadReq mshr miss latency
system.iocache.WriteInvalidateReq_avg_mshr_miss_latency::realview.ide 73009.426424                       # average WriteInvalidateReq mshr miss latency
system.iocache.WriteInvalidateReq_avg_mshr_miss_latency::total 73009.426424                       # average WriteInvalidateReq mshr miss latency
system.iocache.demand_avg_mshr_miss_latency::realview.ide 57863.227273                       # average overall mshr miss latency
system.iocache.demand_avg_mshr_miss_latency::total 57863.227273                       # average overall mshr miss latency
system.iocache.overall_avg_mshr_miss_latency::realview.ide 57863.227273                       # average overall mshr miss latency
system.iocache.overall_avg_mshr_miss_latency::total 57863.227273                       # average overall mshr miss latency
system.iocache.no_allocate_misses                   0                       # Number of misses that were no-allocate
system.switch_cpus0.kern.inst.arm                   0                       # number of arm instructions executed
system.switch_cpus0.kern.inst.quiesce               0                       # number of quiesce instructions executed
system.switch_cpus1.kern.inst.arm                   0                       # number of arm instructions executed
system.switch_cpus1.kern.inst.quiesce               0                       # number of quiesce instructions executed
system.switch_cpus2.kern.inst.arm                   0                       # number of arm instructions executed
system.switch_cpus2.kern.inst.quiesce               0                       # number of quiesce instructions executed
system.switch_cpus3.kern.inst.arm                   0                       # number of arm instructions executed
system.switch_cpus3.kern.inst.quiesce               0                       # number of quiesce instructions executed
system.switch_cpus4.kern.inst.arm                   0                       # number of arm instructions executed
system.switch_cpus4.kern.inst.quiesce               0                       # number of quiesce instructions executed
system.switch_cpus5.kern.inst.arm                   0                       # number of arm instructions executed
system.switch_cpus5.kern.inst.quiesce               0                       # number of quiesce instructions executed
system.switch_cpus6.kern.inst.arm                   0                       # number of arm instructions executed
system.switch_cpus6.kern.inst.quiesce               0                       # number of quiesce instructions executed
system.switch_cpus7.kern.inst.arm                   0                       # number of arm instructions executed
system.switch_cpus7.kern.inst.quiesce               0                       # number of quiesce instructions executed

---------- End Simulation Statistics   ----------
