
---------- Begin Simulation Statistics ----------
sim_seconds                                  0.388807                       # Number of seconds simulated
sim_ticks                                388807325500                       # Number of ticks simulated
final_tick                               3624379567500                       # Number of ticks from beginning of simulation (restored from checkpoints and never reset)
sim_freq                                 1000000000000                       # Frequency of simulated ticks
host_inst_rate                                 208342                       # Simulator instruction rate (inst/s)
host_op_rate                                   214697                       # Simulator op (including micro ops) rate (op/s)
host_tick_rate                               11953554                       # Simulator tick rate (ticks/s)
host_mem_usage                                1142888                       # Number of bytes of host memory used
host_seconds                                 32526.51                       # Real time elapsed on the host
sim_insts                                  6776627239                       # Number of instructions simulated
sim_ops                                    6983329228                       # Number of ops (including micro ops) simulated
system.voltage_domain.voltage                       1                       # Voltage in Volts
system.clk_domain.clock                          1000                       # Clock period in ticks
system.mem_ctrls.bytes_read::switch_cpus0.dtb.walker        51904                       # Number of bytes read from this memory
system.mem_ctrls.bytes_read::switch_cpus0.itb.walker        26176                       # Number of bytes read from this memory
system.mem_ctrls.bytes_read::switch_cpus0.inst       856448                       # Number of bytes read from this memory
system.mem_ctrls.bytes_read::switch_cpus0.data      6652160                       # Number of bytes read from this memory
system.mem_ctrls.bytes_read::switch_cpus1.dtb.walker        13056                       # Number of bytes read from this memory
system.mem_ctrls.bytes_read::switch_cpus1.itb.walker         6720                       # Number of bytes read from this memory
system.mem_ctrls.bytes_read::switch_cpus1.inst       309056                       # Number of bytes read from this memory
system.mem_ctrls.bytes_read::switch_cpus1.data       766144                       # Number of bytes read from this memory
system.mem_ctrls.bytes_read::switch_cpus2.dtb.walker        49472                       # Number of bytes read from this memory
system.mem_ctrls.bytes_read::switch_cpus2.itb.walker        28096                       # Number of bytes read from this memory
system.mem_ctrls.bytes_read::switch_cpus2.inst       599232                       # Number of bytes read from this memory
system.mem_ctrls.bytes_read::switch_cpus2.data      2086528                       # Number of bytes read from this memory
system.mem_ctrls.bytes_read::switch_cpus3.dtb.walker        17792                       # Number of bytes read from this memory
system.mem_ctrls.bytes_read::switch_cpus3.itb.walker        14528                       # Number of bytes read from this memory
system.mem_ctrls.bytes_read::switch_cpus3.inst       602176                       # Number of bytes read from this memory
system.mem_ctrls.bytes_read::switch_cpus3.data      1899200                       # Number of bytes read from this memory
system.mem_ctrls.bytes_read::switch_cpus4.dtb.walker        32704                       # Number of bytes read from this memory
system.mem_ctrls.bytes_read::switch_cpus4.itb.walker        13568                       # Number of bytes read from this memory
system.mem_ctrls.bytes_read::switch_cpus4.inst      1369408                       # Number of bytes read from this memory
system.mem_ctrls.bytes_read::switch_cpus4.data      4377856                       # Number of bytes read from this memory
system.mem_ctrls.bytes_read::switch_cpus5.dtb.walker        14528                       # Number of bytes read from this memory
system.mem_ctrls.bytes_read::switch_cpus5.itb.walker         7232                       # Number of bytes read from this memory
system.mem_ctrls.bytes_read::switch_cpus5.inst       315072                       # Number of bytes read from this memory
system.mem_ctrls.bytes_read::switch_cpus5.data      1230720                       # Number of bytes read from this memory
system.mem_ctrls.bytes_read::switch_cpus6.dtb.walker        20416                       # Number of bytes read from this memory
system.mem_ctrls.bytes_read::switch_cpus6.itb.walker        10624                       # Number of bytes read from this memory
system.mem_ctrls.bytes_read::switch_cpus6.inst      1149440                       # Number of bytes read from this memory
system.mem_ctrls.bytes_read::switch_cpus6.data      3627584                       # Number of bytes read from this memory
system.mem_ctrls.bytes_read::switch_cpus7.dtb.walker        22976                       # Number of bytes read from this memory
system.mem_ctrls.bytes_read::switch_cpus7.itb.walker        12928                       # Number of bytes read from this memory
system.mem_ctrls.bytes_read::switch_cpus7.inst       401600                       # Number of bytes read from this memory
system.mem_ctrls.bytes_read::switch_cpus7.data      1297856                       # Number of bytes read from this memory
system.mem_ctrls.bytes_read::l2.prefetcher     67254208                       # Number of bytes read from this memory
system.mem_ctrls.bytes_read::cpu0.inst            320                       # Number of bytes read from this memory
system.mem_ctrls.bytes_read::cpu0.data            192                       # Number of bytes read from this memory
system.mem_ctrls.bytes_read::cpu2.inst            128                       # Number of bytes read from this memory
system.mem_ctrls.bytes_read::cpu2.data            256                       # Number of bytes read from this memory
system.mem_ctrls.bytes_read::cpu3.inst            256                       # Number of bytes read from this memory
system.mem_ctrls.bytes_read::cpu3.data            192                       # Number of bytes read from this memory
system.mem_ctrls.bytes_read::total           95138752                       # Number of bytes read from this memory
system.mem_ctrls.bytes_inst_read::switch_cpus0.inst       856448                       # Number of instructions bytes read from this memory
system.mem_ctrls.bytes_inst_read::switch_cpus1.inst       309056                       # Number of instructions bytes read from this memory
system.mem_ctrls.bytes_inst_read::switch_cpus2.inst       599232                       # Number of instructions bytes read from this memory
system.mem_ctrls.bytes_inst_read::switch_cpus3.inst       602176                       # Number of instructions bytes read from this memory
system.mem_ctrls.bytes_inst_read::switch_cpus4.inst      1369408                       # Number of instructions bytes read from this memory
system.mem_ctrls.bytes_inst_read::switch_cpus5.inst       315072                       # Number of instructions bytes read from this memory
system.mem_ctrls.bytes_inst_read::switch_cpus6.inst      1149440                       # Number of instructions bytes read from this memory
system.mem_ctrls.bytes_inst_read::switch_cpus7.inst       401600                       # Number of instructions bytes read from this memory
system.mem_ctrls.bytes_inst_read::cpu0.inst          320                       # Number of instructions bytes read from this memory
system.mem_ctrls.bytes_inst_read::cpu2.inst          128                       # Number of instructions bytes read from this memory
system.mem_ctrls.bytes_inst_read::cpu3.inst          256                       # Number of instructions bytes read from this memory
system.mem_ctrls.bytes_inst_read::total       5603136                       # Number of instructions bytes read from this memory
system.mem_ctrls.bytes_written::writebacks     37468160                       # Number of bytes written to this memory
system.mem_ctrls.bytes_written::realview.ide      5204992                       # Number of bytes written to this memory
system.mem_ctrls.bytes_written::total        42673152                       # Number of bytes written to this memory
system.mem_ctrls.num_reads::switch_cpus0.dtb.walker          811                       # Number of read requests responded to by this memory
system.mem_ctrls.num_reads::switch_cpus0.itb.walker          409                       # Number of read requests responded to by this memory
system.mem_ctrls.num_reads::switch_cpus0.inst        13382                       # Number of read requests responded to by this memory
system.mem_ctrls.num_reads::switch_cpus0.data       103940                       # Number of read requests responded to by this memory
system.mem_ctrls.num_reads::switch_cpus1.dtb.walker          204                       # Number of read requests responded to by this memory
system.mem_ctrls.num_reads::switch_cpus1.itb.walker          105                       # Number of read requests responded to by this memory
system.mem_ctrls.num_reads::switch_cpus1.inst         4829                       # Number of read requests responded to by this memory
system.mem_ctrls.num_reads::switch_cpus1.data        11971                       # Number of read requests responded to by this memory
system.mem_ctrls.num_reads::switch_cpus2.dtb.walker          773                       # Number of read requests responded to by this memory
system.mem_ctrls.num_reads::switch_cpus2.itb.walker          439                       # Number of read requests responded to by this memory
system.mem_ctrls.num_reads::switch_cpus2.inst         9363                       # Number of read requests responded to by this memory
system.mem_ctrls.num_reads::switch_cpus2.data        32602                       # Number of read requests responded to by this memory
system.mem_ctrls.num_reads::switch_cpus3.dtb.walker          278                       # Number of read requests responded to by this memory
system.mem_ctrls.num_reads::switch_cpus3.itb.walker          227                       # Number of read requests responded to by this memory
system.mem_ctrls.num_reads::switch_cpus3.inst         9409                       # Number of read requests responded to by this memory
system.mem_ctrls.num_reads::switch_cpus3.data        29675                       # Number of read requests responded to by this memory
system.mem_ctrls.num_reads::switch_cpus4.dtb.walker          511                       # Number of read requests responded to by this memory
system.mem_ctrls.num_reads::switch_cpus4.itb.walker          212                       # Number of read requests responded to by this memory
system.mem_ctrls.num_reads::switch_cpus4.inst        21397                       # Number of read requests responded to by this memory
system.mem_ctrls.num_reads::switch_cpus4.data        68404                       # Number of read requests responded to by this memory
system.mem_ctrls.num_reads::switch_cpus5.dtb.walker          227                       # Number of read requests responded to by this memory
system.mem_ctrls.num_reads::switch_cpus5.itb.walker          113                       # Number of read requests responded to by this memory
system.mem_ctrls.num_reads::switch_cpus5.inst         4923                       # Number of read requests responded to by this memory
system.mem_ctrls.num_reads::switch_cpus5.data        19230                       # Number of read requests responded to by this memory
system.mem_ctrls.num_reads::switch_cpus6.dtb.walker          319                       # Number of read requests responded to by this memory
system.mem_ctrls.num_reads::switch_cpus6.itb.walker          166                       # Number of read requests responded to by this memory
system.mem_ctrls.num_reads::switch_cpus6.inst        17960                       # Number of read requests responded to by this memory
system.mem_ctrls.num_reads::switch_cpus6.data        56681                       # Number of read requests responded to by this memory
system.mem_ctrls.num_reads::switch_cpus7.dtb.walker          359                       # Number of read requests responded to by this memory
system.mem_ctrls.num_reads::switch_cpus7.itb.walker          202                       # Number of read requests responded to by this memory
system.mem_ctrls.num_reads::switch_cpus7.inst         6275                       # Number of read requests responded to by this memory
system.mem_ctrls.num_reads::switch_cpus7.data        20279                       # Number of read requests responded to by this memory
system.mem_ctrls.num_reads::l2.prefetcher      1050847                       # Number of read requests responded to by this memory
system.mem_ctrls.num_reads::cpu0.inst               5                       # Number of read requests responded to by this memory
system.mem_ctrls.num_reads::cpu0.data               3                       # Number of read requests responded to by this memory
system.mem_ctrls.num_reads::cpu2.inst               2                       # Number of read requests responded to by this memory
system.mem_ctrls.num_reads::cpu2.data               4                       # Number of read requests responded to by this memory
system.mem_ctrls.num_reads::cpu3.inst               4                       # Number of read requests responded to by this memory
system.mem_ctrls.num_reads::cpu3.data               3                       # Number of read requests responded to by this memory
system.mem_ctrls.num_reads::total             1486543                       # Number of read requests responded to by this memory
system.mem_ctrls.num_writes::writebacks        585440                       # Number of write requests responded to by this memory
system.mem_ctrls.num_writes::realview.ide        81328                       # Number of write requests responded to by this memory
system.mem_ctrls.num_writes::total             666768                       # Number of write requests responded to by this memory
system.mem_ctrls.bw_read::switch_cpus0.dtb.walker       133495                       # Total read bandwidth from this memory (bytes/s)
system.mem_ctrls.bw_read::switch_cpus0.itb.walker        67324                       # Total read bandwidth from this memory (bytes/s)
system.mem_ctrls.bw_read::switch_cpus0.inst      2202757                       # Total read bandwidth from this memory (bytes/s)
system.mem_ctrls.bw_read::switch_cpus0.data     17109143                       # Total read bandwidth from this memory (bytes/s)
system.mem_ctrls.bw_read::switch_cpus1.dtb.walker        33580                       # Total read bandwidth from this memory (bytes/s)
system.mem_ctrls.bw_read::switch_cpus1.itb.walker        17284                       # Total read bandwidth from this memory (bytes/s)
system.mem_ctrls.bw_read::switch_cpus1.inst       794882                       # Total read bandwidth from this memory (bytes/s)
system.mem_ctrls.bw_read::switch_cpus1.data      1970498                       # Total read bandwidth from this memory (bytes/s)
system.mem_ctrls.bw_read::switch_cpus2.dtb.walker       127240                       # Total read bandwidth from this memory (bytes/s)
system.mem_ctrls.bw_read::switch_cpus2.itb.walker        72262                       # Total read bandwidth from this memory (bytes/s)
system.mem_ctrls.bw_read::switch_cpus2.inst      1541206                       # Total read bandwidth from this memory (bytes/s)
system.mem_ctrls.bw_read::switch_cpus2.data      5366483                       # Total read bandwidth from this memory (bytes/s)
system.mem_ctrls.bw_read::switch_cpus3.dtb.walker        45760                       # Total read bandwidth from this memory (bytes/s)
system.mem_ctrls.bw_read::switch_cpus3.itb.walker        37366                       # Total read bandwidth from this memory (bytes/s)
system.mem_ctrls.bw_read::switch_cpus3.inst      1548777                       # Total read bandwidth from this memory (bytes/s)
system.mem_ctrls.bw_read::switch_cpus3.data      4884682                       # Total read bandwidth from this memory (bytes/s)
system.mem_ctrls.bw_read::switch_cpus4.dtb.walker        84114                       # Total read bandwidth from this memory (bytes/s)
system.mem_ctrls.bw_read::switch_cpus4.itb.walker        34896                       # Total read bandwidth from this memory (bytes/s)
system.mem_ctrls.bw_read::switch_cpus4.inst      3522074                       # Total read bandwidth from this memory (bytes/s)
system.mem_ctrls.bw_read::switch_cpus4.data     11259706                       # Total read bandwidth from this memory (bytes/s)
system.mem_ctrls.bw_read::switch_cpus5.dtb.walker        37366                       # Total read bandwidth from this memory (bytes/s)
system.mem_ctrls.bw_read::switch_cpus5.itb.walker        18600                       # Total read bandwidth from this memory (bytes/s)
system.mem_ctrls.bw_read::switch_cpus5.inst       810355                       # Total read bandwidth from this memory (bytes/s)
system.mem_ctrls.bw_read::switch_cpus5.data      3165372                       # Total read bandwidth from this memory (bytes/s)
system.mem_ctrls.bw_read::switch_cpus6.dtb.walker        52509                       # Total read bandwidth from this memory (bytes/s)
system.mem_ctrls.bw_read::switch_cpus6.itb.walker        27325                       # Total read bandwidth from this memory (bytes/s)
system.mem_ctrls.bw_read::switch_cpus6.inst      2956323                       # Total read bandwidth from this memory (bytes/s)
system.mem_ctrls.bw_read::switch_cpus6.data      9330030                       # Total read bandwidth from this memory (bytes/s)
system.mem_ctrls.bw_read::switch_cpus7.dtb.walker        59094                       # Total read bandwidth from this memory (bytes/s)
system.mem_ctrls.bw_read::switch_cpus7.itb.walker        33250                       # Total read bandwidth from this memory (bytes/s)
system.mem_ctrls.bw_read::switch_cpus7.inst      1032902                       # Total read bandwidth from this memory (bytes/s)
system.mem_ctrls.bw_read::switch_cpus7.data      3338044                       # Total read bandwidth from this memory (bytes/s)
system.mem_ctrls.bw_read::l2.prefetcher     172975671                       # Total read bandwidth from this memory (bytes/s)
system.mem_ctrls.bw_read::cpu0.inst               823                       # Total read bandwidth from this memory (bytes/s)
system.mem_ctrls.bw_read::cpu0.data               494                       # Total read bandwidth from this memory (bytes/s)
system.mem_ctrls.bw_read::cpu2.inst               329                       # Total read bandwidth from this memory (bytes/s)
system.mem_ctrls.bw_read::cpu2.data               658                       # Total read bandwidth from this memory (bytes/s)
system.mem_ctrls.bw_read::cpu3.inst               658                       # Total read bandwidth from this memory (bytes/s)
system.mem_ctrls.bw_read::cpu3.data               494                       # Total read bandwidth from this memory (bytes/s)
system.mem_ctrls.bw_read::total             244693826                       # Total read bandwidth from this memory (bytes/s)
system.mem_ctrls.bw_inst_read::switch_cpus0.inst      2202757                       # Instruction read bandwidth from this memory (bytes/s)
system.mem_ctrls.bw_inst_read::switch_cpus1.inst       794882                       # Instruction read bandwidth from this memory (bytes/s)
system.mem_ctrls.bw_inst_read::switch_cpus2.inst      1541206                       # Instruction read bandwidth from this memory (bytes/s)
system.mem_ctrls.bw_inst_read::switch_cpus3.inst      1548777                       # Instruction read bandwidth from this memory (bytes/s)
system.mem_ctrls.bw_inst_read::switch_cpus4.inst      3522074                       # Instruction read bandwidth from this memory (bytes/s)
system.mem_ctrls.bw_inst_read::switch_cpus5.inst       810355                       # Instruction read bandwidth from this memory (bytes/s)
system.mem_ctrls.bw_inst_read::switch_cpus6.inst      2956323                       # Instruction read bandwidth from this memory (bytes/s)
system.mem_ctrls.bw_inst_read::switch_cpus7.inst      1032902                       # Instruction read bandwidth from this memory (bytes/s)
system.mem_ctrls.bw_inst_read::cpu0.inst          823                       # Instruction read bandwidth from this memory (bytes/s)
system.mem_ctrls.bw_inst_read::cpu2.inst          329                       # Instruction read bandwidth from this memory (bytes/s)
system.mem_ctrls.bw_inst_read::cpu3.inst          658                       # Instruction read bandwidth from this memory (bytes/s)
system.mem_ctrls.bw_inst_read::total         14411087                       # Instruction read bandwidth from this memory (bytes/s)
system.mem_ctrls.bw_write::writebacks        96366909                       # Write bandwidth from this memory (bytes/s)
system.mem_ctrls.bw_write::realview.ide      13387073                       # Write bandwidth from this memory (bytes/s)
system.mem_ctrls.bw_write::total            109753981                       # Write bandwidth from this memory (bytes/s)
system.mem_ctrls.bw_total::writebacks        96366909                       # Total bandwidth to/from this memory (bytes/s)
system.mem_ctrls.bw_total::switch_cpus0.dtb.walker       133495                       # Total bandwidth to/from this memory (bytes/s)
system.mem_ctrls.bw_total::switch_cpus0.itb.walker        67324                       # Total bandwidth to/from this memory (bytes/s)
system.mem_ctrls.bw_total::switch_cpus0.inst      2202757                       # Total bandwidth to/from this memory (bytes/s)
system.mem_ctrls.bw_total::switch_cpus0.data     17109143                       # Total bandwidth to/from this memory (bytes/s)
system.mem_ctrls.bw_total::switch_cpus1.dtb.walker        33580                       # Total bandwidth to/from this memory (bytes/s)
system.mem_ctrls.bw_total::switch_cpus1.itb.walker        17284                       # Total bandwidth to/from this memory (bytes/s)
system.mem_ctrls.bw_total::switch_cpus1.inst       794882                       # Total bandwidth to/from this memory (bytes/s)
system.mem_ctrls.bw_total::switch_cpus1.data      1970498                       # Total bandwidth to/from this memory (bytes/s)
system.mem_ctrls.bw_total::switch_cpus2.dtb.walker       127240                       # Total bandwidth to/from this memory (bytes/s)
system.mem_ctrls.bw_total::switch_cpus2.itb.walker        72262                       # Total bandwidth to/from this memory (bytes/s)
system.mem_ctrls.bw_total::switch_cpus2.inst      1541206                       # Total bandwidth to/from this memory (bytes/s)
system.mem_ctrls.bw_total::switch_cpus2.data      5366483                       # Total bandwidth to/from this memory (bytes/s)
system.mem_ctrls.bw_total::switch_cpus3.dtb.walker        45760                       # Total bandwidth to/from this memory (bytes/s)
system.mem_ctrls.bw_total::switch_cpus3.itb.walker        37366                       # Total bandwidth to/from this memory (bytes/s)
system.mem_ctrls.bw_total::switch_cpus3.inst      1548777                       # Total bandwidth to/from this memory (bytes/s)
system.mem_ctrls.bw_total::switch_cpus3.data      4884682                       # Total bandwidth to/from this memory (bytes/s)
system.mem_ctrls.bw_total::switch_cpus4.dtb.walker        84114                       # Total bandwidth to/from this memory (bytes/s)
system.mem_ctrls.bw_total::switch_cpus4.itb.walker        34896                       # Total bandwidth to/from this memory (bytes/s)
system.mem_ctrls.bw_total::switch_cpus4.inst      3522074                       # Total bandwidth to/from this memory (bytes/s)
system.mem_ctrls.bw_total::switch_cpus4.data     11259706                       # Total bandwidth to/from this memory (bytes/s)
system.mem_ctrls.bw_total::switch_cpus5.dtb.walker        37366                       # Total bandwidth to/from this memory (bytes/s)
system.mem_ctrls.bw_total::switch_cpus5.itb.walker        18600                       # Total bandwidth to/from this memory (bytes/s)
system.mem_ctrls.bw_total::switch_cpus5.inst       810355                       # Total bandwidth to/from this memory (bytes/s)
system.mem_ctrls.bw_total::switch_cpus5.data      3165372                       # Total bandwidth to/from this memory (bytes/s)
system.mem_ctrls.bw_total::switch_cpus6.dtb.walker        52509                       # Total bandwidth to/from this memory (bytes/s)
system.mem_ctrls.bw_total::switch_cpus6.itb.walker        27325                       # Total bandwidth to/from this memory (bytes/s)
system.mem_ctrls.bw_total::switch_cpus6.inst      2956323                       # Total bandwidth to/from this memory (bytes/s)
system.mem_ctrls.bw_total::switch_cpus6.data      9330030                       # Total bandwidth to/from this memory (bytes/s)
system.mem_ctrls.bw_total::switch_cpus7.dtb.walker        59094                       # Total bandwidth to/from this memory (bytes/s)
system.mem_ctrls.bw_total::switch_cpus7.itb.walker        33250                       # Total bandwidth to/from this memory (bytes/s)
system.mem_ctrls.bw_total::switch_cpus7.inst      1032902                       # Total bandwidth to/from this memory (bytes/s)
system.mem_ctrls.bw_total::switch_cpus7.data      3338044                       # Total bandwidth to/from this memory (bytes/s)
system.mem_ctrls.bw_total::realview.ide      13387073                       # Total bandwidth to/from this memory (bytes/s)
system.mem_ctrls.bw_total::l2.prefetcher    172975671                       # Total bandwidth to/from this memory (bytes/s)
system.mem_ctrls.bw_total::cpu0.inst              823                       # Total bandwidth to/from this memory (bytes/s)
system.mem_ctrls.bw_total::cpu0.data              494                       # Total bandwidth to/from this memory (bytes/s)
system.mem_ctrls.bw_total::cpu2.inst              329                       # Total bandwidth to/from this memory (bytes/s)
system.mem_ctrls.bw_total::cpu2.data              658                       # Total bandwidth to/from this memory (bytes/s)
system.mem_ctrls.bw_total::cpu3.inst              658                       # Total bandwidth to/from this memory (bytes/s)
system.mem_ctrls.bw_total::cpu3.data              494                       # Total bandwidth to/from this memory (bytes/s)
system.mem_ctrls.bw_total::total            354447807                       # Total bandwidth to/from this memory (bytes/s)
system.mem_ctrls.readReqs                     1486522                       # Number of read requests accepted
system.mem_ctrls.writeReqs                     666768                       # Number of write requests accepted
system.mem_ctrls.readBursts                   1486522                       # Number of DRAM read bursts, including those serviced by the write queue
system.mem_ctrls.writeBursts                   666768                       # Number of DRAM write bursts, including those merged in the write queue
system.mem_ctrls.bytesReadDRAM               94972736                       # Total number of bytes read from DRAM
system.mem_ctrls.bytesReadWrQ                  164672                       # Total number of bytes read from write queue
system.mem_ctrls.bytesWritten                42671936                       # Total number of bytes written to DRAM
system.mem_ctrls.bytesReadSys                95137408                       # Total read bytes from the system interface side
system.mem_ctrls.bytesWrittenSys             42673152                       # Total written bytes from the system interface side
system.mem_ctrls.servicedByWrQ                   2573                       # Number of DRAM read bursts serviced by the write queue
system.mem_ctrls.mergedWrBursts                     3                       # Number of DRAM write bursts merged with an existing one
system.mem_ctrls.neitherReadNorWriteReqs        73224                       # Number of requests that are neither read nor write
system.mem_ctrls.perBankRdBursts::0             85953                       # Per bank write bursts
system.mem_ctrls.perBankRdBursts::1             74706                       # Per bank write bursts
system.mem_ctrls.perBankRdBursts::2            101395                       # Per bank write bursts
system.mem_ctrls.perBankRdBursts::3            110214                       # Per bank write bursts
system.mem_ctrls.perBankRdBursts::4             99810                       # Per bank write bursts
system.mem_ctrls.perBankRdBursts::5             85992                       # Per bank write bursts
system.mem_ctrls.perBankRdBursts::6            102152                       # Per bank write bursts
system.mem_ctrls.perBankRdBursts::7            110148                       # Per bank write bursts
system.mem_ctrls.perBankRdBursts::8            105988                       # Per bank write bursts
system.mem_ctrls.perBankRdBursts::9            134421                       # Per bank write bursts
system.mem_ctrls.perBankRdBursts::10            96351                       # Per bank write bursts
system.mem_ctrls.perBankRdBursts::11            92916                       # Per bank write bursts
system.mem_ctrls.perBankRdBursts::12            61494                       # Per bank write bursts
system.mem_ctrls.perBankRdBursts::13            66597                       # Per bank write bursts
system.mem_ctrls.perBankRdBursts::14            70238                       # Per bank write bursts
system.mem_ctrls.perBankRdBursts::15            85574                       # Per bank write bursts
system.mem_ctrls.perBankWrBursts::0             43575                       # Per bank write bursts
system.mem_ctrls.perBankWrBursts::1             38814                       # Per bank write bursts
system.mem_ctrls.perBankWrBursts::2             42139                       # Per bank write bursts
system.mem_ctrls.perBankWrBursts::3             43393                       # Per bank write bursts
system.mem_ctrls.perBankWrBursts::4             42242                       # Per bank write bursts
system.mem_ctrls.perBankWrBursts::5             40558                       # Per bank write bursts
system.mem_ctrls.perBankWrBursts::6             40071                       # Per bank write bursts
system.mem_ctrls.perBankWrBursts::7             41839                       # Per bank write bursts
system.mem_ctrls.perBankWrBursts::8             42066                       # Per bank write bursts
system.mem_ctrls.perBankWrBursts::9             45682                       # Per bank write bursts
system.mem_ctrls.perBankWrBursts::10            45289                       # Per bank write bursts
system.mem_ctrls.perBankWrBursts::11            46558                       # Per bank write bursts
system.mem_ctrls.perBankWrBursts::12            38751                       # Per bank write bursts
system.mem_ctrls.perBankWrBursts::13            38091                       # Per bank write bursts
system.mem_ctrls.perBankWrBursts::14            35849                       # Per bank write bursts
system.mem_ctrls.perBankWrBursts::15            41832                       # Per bank write bursts
system.mem_ctrls.numRdRetry                         0                       # Number of times read queue was full causing retry
system.mem_ctrls.numWrRetry                        50                       # Number of times write queue was full causing retry
system.mem_ctrls.totGap                  388801311000                       # Total gap between requests
system.mem_ctrls.readPktSize::0                     0                       # Read request sizes (log2)
system.mem_ctrls.readPktSize::1                     0                       # Read request sizes (log2)
system.mem_ctrls.readPktSize::2                     0                       # Read request sizes (log2)
system.mem_ctrls.readPktSize::3                     0                       # Read request sizes (log2)
system.mem_ctrls.readPktSize::4                     0                       # Read request sizes (log2)
system.mem_ctrls.readPktSize::5                     0                       # Read request sizes (log2)
system.mem_ctrls.readPktSize::6               1486522                       # Read request sizes (log2)
system.mem_ctrls.writePktSize::0                    0                       # Write request sizes (log2)
system.mem_ctrls.writePktSize::1                    0                       # Write request sizes (log2)
system.mem_ctrls.writePktSize::2                    0                       # Write request sizes (log2)
system.mem_ctrls.writePktSize::3                    0                       # Write request sizes (log2)
system.mem_ctrls.writePktSize::4                    0                       # Write request sizes (log2)
system.mem_ctrls.writePktSize::5                    0                       # Write request sizes (log2)
system.mem_ctrls.writePktSize::6               666768                       # Write request sizes (log2)
system.mem_ctrls.rdQLenPdf::0                  562808                       # What read queue length does an incoming req see
system.mem_ctrls.rdQLenPdf::1                  356729                       # What read queue length does an incoming req see
system.mem_ctrls.rdQLenPdf::2                  176076                       # What read queue length does an incoming req see
system.mem_ctrls.rdQLenPdf::3                  107386                       # What read queue length does an incoming req see
system.mem_ctrls.rdQLenPdf::4                   74996                       # What read queue length does an incoming req see
system.mem_ctrls.rdQLenPdf::5                   56740                       # What read queue length does an incoming req see
system.mem_ctrls.rdQLenPdf::6                   44284                       # What read queue length does an incoming req see
system.mem_ctrls.rdQLenPdf::7                   35145                       # What read queue length does an incoming req see
system.mem_ctrls.rdQLenPdf::8                   27889                       # What read queue length does an incoming req see
system.mem_ctrls.rdQLenPdf::9                   14439                       # What read queue length does an incoming req see
system.mem_ctrls.rdQLenPdf::10                   9431                       # What read queue length does an incoming req see
system.mem_ctrls.rdQLenPdf::11                   6926                       # What read queue length does an incoming req see
system.mem_ctrls.rdQLenPdf::12                   4335                       # What read queue length does an incoming req see
system.mem_ctrls.rdQLenPdf::13                   3001                       # What read queue length does an incoming req see
system.mem_ctrls.rdQLenPdf::14                   2195                       # What read queue length does an incoming req see
system.mem_ctrls.rdQLenPdf::15                   1569                       # What read queue length does an incoming req see
system.mem_ctrls.rdQLenPdf::16                      0                       # What read queue length does an incoming req see
system.mem_ctrls.rdQLenPdf::17                      0                       # What read queue length does an incoming req see
system.mem_ctrls.rdQLenPdf::18                      0                       # What read queue length does an incoming req see
system.mem_ctrls.rdQLenPdf::19                      0                       # What read queue length does an incoming req see
system.mem_ctrls.rdQLenPdf::20                      0                       # What read queue length does an incoming req see
system.mem_ctrls.rdQLenPdf::21                      0                       # What read queue length does an incoming req see
system.mem_ctrls.rdQLenPdf::22                      0                       # What read queue length does an incoming req see
system.mem_ctrls.rdQLenPdf::23                      0                       # What read queue length does an incoming req see
system.mem_ctrls.rdQLenPdf::24                      0                       # What read queue length does an incoming req see
system.mem_ctrls.rdQLenPdf::25                      0                       # What read queue length does an incoming req see
system.mem_ctrls.rdQLenPdf::26                      0                       # What read queue length does an incoming req see
system.mem_ctrls.rdQLenPdf::27                      0                       # What read queue length does an incoming req see
system.mem_ctrls.rdQLenPdf::28                      0                       # What read queue length does an incoming req see
system.mem_ctrls.rdQLenPdf::29                      0                       # What read queue length does an incoming req see
system.mem_ctrls.rdQLenPdf::30                      0                       # What read queue length does an incoming req see
system.mem_ctrls.rdQLenPdf::31                      0                       # What read queue length does an incoming req see
system.mem_ctrls.wrQLenPdf::0                       1                       # What write queue length does an incoming req see
system.mem_ctrls.wrQLenPdf::1                       1                       # What write queue length does an incoming req see
system.mem_ctrls.wrQLenPdf::2                       1                       # What write queue length does an incoming req see
system.mem_ctrls.wrQLenPdf::3                       1                       # What write queue length does an incoming req see
system.mem_ctrls.wrQLenPdf::4                       1                       # What write queue length does an incoming req see
system.mem_ctrls.wrQLenPdf::5                       1                       # What write queue length does an incoming req see
system.mem_ctrls.wrQLenPdf::6                       1                       # What write queue length does an incoming req see
system.mem_ctrls.wrQLenPdf::7                       1                       # What write queue length does an incoming req see
system.mem_ctrls.wrQLenPdf::8                       1                       # What write queue length does an incoming req see
system.mem_ctrls.wrQLenPdf::9                       1                       # What write queue length does an incoming req see
system.mem_ctrls.wrQLenPdf::10                      1                       # What write queue length does an incoming req see
system.mem_ctrls.wrQLenPdf::11                      1                       # What write queue length does an incoming req see
system.mem_ctrls.wrQLenPdf::12                      1                       # What write queue length does an incoming req see
system.mem_ctrls.wrQLenPdf::13                      1                       # What write queue length does an incoming req see
system.mem_ctrls.wrQLenPdf::14                      1                       # What write queue length does an incoming req see
system.mem_ctrls.wrQLenPdf::15                  10344                       # What write queue length does an incoming req see
system.mem_ctrls.wrQLenPdf::16                  11508                       # What write queue length does an incoming req see
system.mem_ctrls.wrQLenPdf::17                  20297                       # What write queue length does an incoming req see
system.mem_ctrls.wrQLenPdf::18                  26625                       # What write queue length does an incoming req see
system.mem_ctrls.wrQLenPdf::19                  30722                       # What write queue length does an incoming req see
system.mem_ctrls.wrQLenPdf::20                  33918                       # What write queue length does an incoming req see
system.mem_ctrls.wrQLenPdf::21                  36270                       # What write queue length does an incoming req see
system.mem_ctrls.wrQLenPdf::22                  39091                       # What write queue length does an incoming req see
system.mem_ctrls.wrQLenPdf::23                  41283                       # What write queue length does an incoming req see
system.mem_ctrls.wrQLenPdf::24                  43637                       # What write queue length does an incoming req see
system.mem_ctrls.wrQLenPdf::25                  44637                       # What write queue length does an incoming req see
system.mem_ctrls.wrQLenPdf::26                  45104                       # What write queue length does an incoming req see
system.mem_ctrls.wrQLenPdf::27                  45852                       # What write queue length does an incoming req see
system.mem_ctrls.wrQLenPdf::28                  47536                       # What write queue length does an incoming req see
system.mem_ctrls.wrQLenPdf::29                  44332                       # What write queue length does an incoming req see
system.mem_ctrls.wrQLenPdf::30                  43568                       # What write queue length does an incoming req see
system.mem_ctrls.wrQLenPdf::31                  42813                       # What write queue length does an incoming req see
system.mem_ctrls.wrQLenPdf::32                  40535                       # What write queue length does an incoming req see
system.mem_ctrls.wrQLenPdf::33                   2934                       # What write queue length does an incoming req see
system.mem_ctrls.wrQLenPdf::34                   2090                       # What write queue length does an incoming req see
system.mem_ctrls.wrQLenPdf::35                   1602                       # What write queue length does an incoming req see
system.mem_ctrls.wrQLenPdf::36                   1274                       # What write queue length does an incoming req see
system.mem_ctrls.wrQLenPdf::37                   1038                       # What write queue length does an incoming req see
system.mem_ctrls.wrQLenPdf::38                    891                       # What write queue length does an incoming req see
system.mem_ctrls.wrQLenPdf::39                    789                       # What write queue length does an incoming req see
system.mem_ctrls.wrQLenPdf::40                    686                       # What write queue length does an incoming req see
system.mem_ctrls.wrQLenPdf::41                    600                       # What write queue length does an incoming req see
system.mem_ctrls.wrQLenPdf::42                    534                       # What write queue length does an incoming req see
system.mem_ctrls.wrQLenPdf::43                    485                       # What write queue length does an incoming req see
system.mem_ctrls.wrQLenPdf::44                    468                       # What write queue length does an incoming req see
system.mem_ctrls.wrQLenPdf::45                    441                       # What write queue length does an incoming req see
system.mem_ctrls.wrQLenPdf::46                    414                       # What write queue length does an incoming req see
system.mem_ctrls.wrQLenPdf::47                    442                       # What write queue length does an incoming req see
system.mem_ctrls.wrQLenPdf::48                    448                       # What write queue length does an incoming req see
system.mem_ctrls.wrQLenPdf::49                    426                       # What write queue length does an incoming req see
system.mem_ctrls.wrQLenPdf::50                    400                       # What write queue length does an incoming req see
system.mem_ctrls.wrQLenPdf::51                    370                       # What write queue length does an incoming req see
system.mem_ctrls.wrQLenPdf::52                    371                       # What write queue length does an incoming req see
system.mem_ctrls.wrQLenPdf::53                    341                       # What write queue length does an incoming req see
system.mem_ctrls.wrQLenPdf::54                    318                       # What write queue length does an incoming req see
system.mem_ctrls.wrQLenPdf::55                    230                       # What write queue length does an incoming req see
system.mem_ctrls.wrQLenPdf::56                    215                       # What write queue length does an incoming req see
system.mem_ctrls.wrQLenPdf::57                    180                       # What write queue length does an incoming req see
system.mem_ctrls.wrQLenPdf::58                    155                       # What write queue length does an incoming req see
system.mem_ctrls.wrQLenPdf::59                    123                       # What write queue length does an incoming req see
system.mem_ctrls.wrQLenPdf::60                    106                       # What write queue length does an incoming req see
system.mem_ctrls.wrQLenPdf::61                     93                       # What write queue length does an incoming req see
system.mem_ctrls.wrQLenPdf::62                     81                       # What write queue length does an incoming req see
system.mem_ctrls.wrQLenPdf::63                    133                       # What write queue length does an incoming req see
system.mem_ctrls.bytesPerActivate::samples       857994                       # Bytes accessed per row activation
system.mem_ctrls.bytesPerActivate::mean    160.426148                       # Bytes accessed per row activation
system.mem_ctrls.bytesPerActivate::gmean   105.552815                       # Bytes accessed per row activation
system.mem_ctrls.bytesPerActivate::stdev   210.332953                       # Bytes accessed per row activation
system.mem_ctrls.bytesPerActivate::0-127       534353     62.28%     62.28% # Bytes accessed per row activation
system.mem_ctrls.bytesPerActivate::128-255       186646     21.75%     84.03% # Bytes accessed per row activation
system.mem_ctrls.bytesPerActivate::256-383        49323      5.75%     89.78% # Bytes accessed per row activation
system.mem_ctrls.bytesPerActivate::384-511        24122      2.81%     92.59% # Bytes accessed per row activation
system.mem_ctrls.bytesPerActivate::512-639        15887      1.85%     94.44% # Bytes accessed per row activation
system.mem_ctrls.bytesPerActivate::640-767         9312      1.09%     95.53% # Bytes accessed per row activation
system.mem_ctrls.bytesPerActivate::768-895         6228      0.73%     96.26% # Bytes accessed per row activation
system.mem_ctrls.bytesPerActivate::896-1023         4896      0.57%     96.83% # Bytes accessed per row activation
system.mem_ctrls.bytesPerActivate::1024-1151        27227      3.17%    100.00% # Bytes accessed per row activation
system.mem_ctrls.bytesPerActivate::total       857994                       # Bytes accessed per row activation
system.mem_ctrls.rdPerTurnAround::samples        38570                       # Reads before turning the bus around for writes
system.mem_ctrls.rdPerTurnAround::mean      38.474177                       # Reads before turning the bus around for writes
system.mem_ctrls.rdPerTurnAround::stdev     95.707897                       # Reads before turning the bus around for writes
system.mem_ctrls.rdPerTurnAround::0-1023        38566     99.99%     99.99% # Reads before turning the bus around for writes
system.mem_ctrls.rdPerTurnAround::1024-2047            3      0.01%    100.00% # Reads before turning the bus around for writes
system.mem_ctrls.rdPerTurnAround::17408-18431            1      0.00%    100.00% # Reads before turning the bus around for writes
system.mem_ctrls.rdPerTurnAround::total         38570                       # Reads before turning the bus around for writes
system.mem_ctrls.wrPerTurnAround::samples        38570                       # Writes before turning the bus around for reads
system.mem_ctrls.wrPerTurnAround::mean      17.286725                       # Writes before turning the bus around for reads
system.mem_ctrls.wrPerTurnAround::gmean     17.040407                       # Writes before turning the bus around for reads
system.mem_ctrls.wrPerTurnAround::stdev      4.026810                       # Writes before turning the bus around for reads
system.mem_ctrls.wrPerTurnAround::16-19         36135     93.69%     93.69% # Writes before turning the bus around for reads
system.mem_ctrls.wrPerTurnAround::20-23          1381      3.58%     97.27% # Writes before turning the bus around for reads
system.mem_ctrls.wrPerTurnAround::24-27           221      0.57%     97.84% # Writes before turning the bus around for reads
system.mem_ctrls.wrPerTurnAround::28-31           250      0.65%     98.49% # Writes before turning the bus around for reads
system.mem_ctrls.wrPerTurnAround::32-35           169      0.44%     98.93% # Writes before turning the bus around for reads
system.mem_ctrls.wrPerTurnAround::36-39           105      0.27%     99.20% # Writes before turning the bus around for reads
system.mem_ctrls.wrPerTurnAround::40-43            81      0.21%     99.41% # Writes before turning the bus around for reads
system.mem_ctrls.wrPerTurnAround::44-47            52      0.13%     99.54% # Writes before turning the bus around for reads
system.mem_ctrls.wrPerTurnAround::48-51            64      0.17%     99.71% # Writes before turning the bus around for reads
system.mem_ctrls.wrPerTurnAround::52-55            28      0.07%     99.78% # Writes before turning the bus around for reads
system.mem_ctrls.wrPerTurnAround::56-59            24      0.06%     99.84% # Writes before turning the bus around for reads
system.mem_ctrls.wrPerTurnAround::60-63            10      0.03%     99.87% # Writes before turning the bus around for reads
system.mem_ctrls.wrPerTurnAround::64-67            31      0.08%     99.95% # Writes before turning the bus around for reads
system.mem_ctrls.wrPerTurnAround::68-71             7      0.02%     99.97% # Writes before turning the bus around for reads
system.mem_ctrls.wrPerTurnAround::72-75             1      0.00%     99.97% # Writes before turning the bus around for reads
system.mem_ctrls.wrPerTurnAround::76-79             2      0.01%     99.98% # Writes before turning the bus around for reads
system.mem_ctrls.wrPerTurnAround::80-83             3      0.01%     99.98% # Writes before turning the bus around for reads
system.mem_ctrls.wrPerTurnAround::88-91             3      0.01%     99.99% # Writes before turning the bus around for reads
system.mem_ctrls.wrPerTurnAround::104-107            1      0.00%     99.99% # Writes before turning the bus around for reads
system.mem_ctrls.wrPerTurnAround::120-123            1      0.00%    100.00% # Writes before turning the bus around for reads
system.mem_ctrls.wrPerTurnAround::148-151            1      0.00%    100.00% # Writes before turning the bus around for reads
system.mem_ctrls.wrPerTurnAround::total         38570                       # Writes before turning the bus around for reads
system.mem_ctrls.totQLat                  50556882070                       # Total ticks spent queuing
system.mem_ctrls.totMemAccLat             78380925820                       # Total ticks spent from burst creation until serviced by the DRAM
system.mem_ctrls.totBusLat                 7419745000                       # Total ticks spent in databus transfers
system.mem_ctrls.avgQLat                     34069.15                       # Average queueing delay per DRAM burst
system.mem_ctrls.avgBusLat                    5000.00                       # Average bus latency per DRAM burst
system.mem_ctrls.avgMemAccLat                52819.15                       # Average memory access latency per DRAM burst
system.mem_ctrls.avgRdBW                       244.27                       # Average DRAM read bandwidth in MiByte/s
system.mem_ctrls.avgWrBW                       109.75                       # Average achieved write bandwidth in MiByte/s
system.mem_ctrls.avgRdBWSys                    244.69                       # Average system read bandwidth in MiByte/s
system.mem_ctrls.avgWrBWSys                    109.75                       # Average system write bandwidth in MiByte/s
system.mem_ctrls.peakBW                      12800.00                       # Theoretical peak bandwidth in MiByte/s
system.mem_ctrls.busUtil                         2.77                       # Data bus utilization in percentage
system.mem_ctrls.busUtilRead                     1.91                       # Data bus utilization in percentage for reads
system.mem_ctrls.busUtilWrite                    0.86                       # Data bus utilization in percentage for writes
system.mem_ctrls.avgRdQLen                       1.54                       # Average read queue length when enqueuing
system.mem_ctrls.avgWrQLen                      24.80                       # Average write queue length when enqueuing
system.mem_ctrls.readRowHits                  1036786                       # Number of row buffer hits during reads
system.mem_ctrls.writeRowHits                  255918                       # Number of row buffer hits during writes
system.mem_ctrls.readRowHitRate                 69.87                       # Row buffer hit rate for reads
system.mem_ctrls.writeRowHitRate                38.38                       # Row buffer hit rate for writes
system.mem_ctrls.avgGap                     180561.52                       # Average gap between requests
system.mem_ctrls.pageHitRate                    60.11                       # Row buffer hit rate, read and write combined
system.mem_ctrls.memoryStateTime::IDLE   160036605116                       # Time in different power states
system.mem_ctrls.memoryStateTime::REF     12983100000                       # Time in different power states
system.mem_ctrls.memoryStateTime::PRE_PDN            0                       # Time in different power states
system.mem_ctrls.memoryStateTime::ACT    215786948634                       # Time in different power states
system.mem_ctrls.memoryStateTime::ACT_PDN            0                       # Time in different power states
system.mem_ctrls.actEnergy::0              3368713320                       # Energy for activate commands per rank (pJ)
system.mem_ctrls.actEnergy::1              3117721320                       # Energy for activate commands per rank (pJ)
system.mem_ctrls.preEnergy::0              1838087625                       # Energy for precharge commands per rank (pJ)
system.mem_ctrls.preEnergy::1              1701137625                       # Energy for precharge commands per rank (pJ)
system.mem_ctrls.readEnergy::0             6008886000                       # Energy for read commands per rank (pJ)
system.mem_ctrls.readEnergy::1             5565916200                       # Energy for read commands per rank (pJ)
system.mem_ctrls.writeEnergy::0            2155448880                       # Energy for write commands per rank (pJ)
system.mem_ctrls.writeEnergy::1            2165084640                       # Energy for write commands per rank (pJ)
system.mem_ctrls.refreshEnergy::0         25394943600                       # Energy for refresh commands per rank (pJ)
system.mem_ctrls.refreshEnergy::1         25394943600                       # Energy for refresh commands per rank (pJ)
system.mem_ctrls.actBackEnergy::0        129857923260                       # Energy for active background per rank (pJ)
system.mem_ctrls.actBackEnergy::1        125715762900                       # Energy for active background per rank (pJ)
system.mem_ctrls.preBackEnergy::0        119373525000                       # Energy for precharge background per rank (pJ)
system.mem_ctrls.preBackEnergy::1        123006999000                       # Energy for precharge background per rank (pJ)
system.mem_ctrls.totalEnergy::0          287997527685                       # Total energy per rank (pJ)
system.mem_ctrls.totalEnergy::1          286667565285                       # Total energy per rank (pJ)
system.mem_ctrls.averagePower::0           740.721732                       # Core power per rank (mW)
system.mem_ctrls.averagePower::1           737.301105                       # Core power per rank (mW)
system.cpu_voltage_domain.voltage                   1                       # Voltage in Volts
system.cpu_clk_domain.clock                       500                       # Clock period in ticks
system.tol2bus.trans_dist::ReadReq           10102650                       # Transaction distribution
system.tol2bus.trans_dist::ReadResp          10102597                       # Transaction distribution
system.tol2bus.trans_dist::WriteReq              5959                       # Transaction distribution
system.tol2bus.trans_dist::WriteResp             5959                       # Transaction distribution
system.tol2bus.trans_dist::Writeback          1784535                       # Transaction distribution
system.tol2bus.trans_dist::HardPFReq          2586842                       # Transaction distribution
system.tol2bus.trans_dist::HardPFResp               3                       # Transaction distribution
system.tol2bus.trans_dist::WriteInvalidateReq        81377                       # Transaction distribution
system.tol2bus.trans_dist::UpgradeReq          118479                       # Transaction distribution
system.tol2bus.trans_dist::SCUpgradeReq         52662                       # Transaction distribution
system.tol2bus.trans_dist::UpgradeResp         171141                       # Transaction distribution
system.tol2bus.trans_dist::SCUpgradeFailReq           27                       # Transaction distribution
system.tol2bus.trans_dist::UpgradeFailResp           27                       # Transaction distribution
system.tol2bus.trans_dist::ReadExReq          1169851                       # Transaction distribution
system.tol2bus.trans_dist::ReadExResp         1169851                       # Transaction distribution
system.tol2bus.pkt_count_system.cpu0.icache.mem_side::system.l2.cpu_side      1403267                       # Packet count per connected master and slave (bytes)
system.tol2bus.pkt_count_system.cpu0.dcache.mem_side::system.l2.cpu_side      2132139                       # Packet count per connected master and slave (bytes)
system.tol2bus.pkt_count_system.cpu0.itb.walker.dma::system.l2.cpu_side        58816                       # Packet count per connected master and slave (bytes)
system.tol2bus.pkt_count_system.cpu0.dtb.walker.dma::system.l2.cpu_side       250637                       # Packet count per connected master and slave (bytes)
system.tol2bus.pkt_count_system.cpu1.icache.mem_side::system.l2.cpu_side       629532                       # Packet count per connected master and slave (bytes)
system.tol2bus.pkt_count_system.cpu1.dcache.mem_side::system.l2.cpu_side       895898                       # Packet count per connected master and slave (bytes)
system.tol2bus.pkt_count_system.cpu1.itb.walker.dma::system.l2.cpu_side        30113                       # Packet count per connected master and slave (bytes)
system.tol2bus.pkt_count_system.cpu1.dtb.walker.dma::system.l2.cpu_side       175612                       # Packet count per connected master and slave (bytes)
system.tol2bus.pkt_count_system.cpu2.icache.mem_side::system.l2.cpu_side       995008                       # Packet count per connected master and slave (bytes)
system.tol2bus.pkt_count_system.cpu2.dcache.mem_side::system.l2.cpu_side      1116569                       # Packet count per connected master and slave (bytes)
system.tol2bus.pkt_count_system.cpu2.itb.walker.dma::system.l2.cpu_side        53799                       # Packet count per connected master and slave (bytes)
system.tol2bus.pkt_count_system.cpu2.dtb.walker.dma::system.l2.cpu_side       219694                       # Packet count per connected master and slave (bytes)
system.tol2bus.pkt_count_system.cpu3.icache.mem_side::system.l2.cpu_side      1099910                       # Packet count per connected master and slave (bytes)
system.tol2bus.pkt_count_system.cpu3.dcache.mem_side::system.l2.cpu_side      1344558                       # Packet count per connected master and slave (bytes)
system.tol2bus.pkt_count_system.cpu3.itb.walker.dma::system.l2.cpu_side        49328                       # Packet count per connected master and slave (bytes)
system.tol2bus.pkt_count_system.cpu3.dtb.walker.dma::system.l2.cpu_side       231355                       # Packet count per connected master and slave (bytes)
system.tol2bus.pkt_count_system.cpu4.icache.mem_side::system.l2.cpu_side      2712538                       # Packet count per connected master and slave (bytes)
system.tol2bus.pkt_count_system.cpu4.dcache.mem_side::system.l2.cpu_side      2338368                       # Packet count per connected master and slave (bytes)
system.tol2bus.pkt_count_system.cpu4.itb.walker.dma::system.l2.cpu_side        75303                       # Packet count per connected master and slave (bytes)
system.tol2bus.pkt_count_system.cpu4.dtb.walker.dma::system.l2.cpu_side       408378                       # Packet count per connected master and slave (bytes)
system.tol2bus.pkt_count_system.cpu5.icache.mem_side::system.l2.cpu_side       641770                       # Packet count per connected master and slave (bytes)
system.tol2bus.pkt_count_system.cpu5.dcache.mem_side::system.l2.cpu_side       814877                       # Packet count per connected master and slave (bytes)
system.tol2bus.pkt_count_system.cpu5.itb.walker.dma::system.l2.cpu_side        24811                       # Packet count per connected master and slave (bytes)
system.tol2bus.pkt_count_system.cpu5.dtb.walker.dma::system.l2.cpu_side       173458                       # Packet count per connected master and slave (bytes)
system.tol2bus.pkt_count_system.cpu6.icache.mem_side::system.l2.cpu_side      1954922                       # Packet count per connected master and slave (bytes)
system.tol2bus.pkt_count_system.cpu6.dcache.mem_side::system.l2.cpu_side      1744606                       # Packet count per connected master and slave (bytes)
system.tol2bus.pkt_count_system.cpu6.itb.walker.dma::system.l2.cpu_side        50536                       # Packet count per connected master and slave (bytes)
system.tol2bus.pkt_count_system.cpu6.dtb.walker.dma::system.l2.cpu_side       320047                       # Packet count per connected master and slave (bytes)
system.tol2bus.pkt_count_system.cpu7.icache.mem_side::system.l2.cpu_side       756909                       # Packet count per connected master and slave (bytes)
system.tol2bus.pkt_count_system.cpu7.dcache.mem_side::system.l2.cpu_side       993847                       # Packet count per connected master and slave (bytes)
system.tol2bus.pkt_count_system.cpu7.itb.walker.dma::system.l2.cpu_side        27874                       # Packet count per connected master and slave (bytes)
system.tol2bus.pkt_count_system.cpu7.dtb.walker.dma::system.l2.cpu_side       183010                       # Packet count per connected master and slave (bytes)
system.tol2bus.pkt_count::total              23907489                       # Packet count per connected master and slave (bytes)
system.tol2bus.pkt_size_system.cpu0.icache.mem_side::system.l2.cpu_side     44904320                       # Cumulative packet size per connected master and slave (bytes)
system.tol2bus.pkt_size_system.cpu0.dcache.mem_side::system.l2.cpu_side     78092910                       # Cumulative packet size per connected master and slave (bytes)
system.tol2bus.pkt_size_system.cpu0.itb.walker.dma::system.l2.cpu_side        93020                       # Cumulative packet size per connected master and slave (bytes)
system.tol2bus.pkt_size_system.cpu0.dtb.walker.dma::system.l2.cpu_side       441404                       # Cumulative packet size per connected master and slave (bytes)
system.tol2bus.pkt_size_system.cpu1.icache.mem_side::system.l2.cpu_side     20144832                       # Cumulative packet size per connected master and slave (bytes)
system.tol2bus.pkt_size_system.cpu1.dcache.mem_side::system.l2.cpu_side     30818005                       # Cumulative packet size per connected master and slave (bytes)
system.tol2bus.pkt_size_system.cpu1.itb.walker.dma::system.l2.cpu_side        38988                       # Cumulative packet size per connected master and slave (bytes)
system.tol2bus.pkt_size_system.cpu1.dtb.walker.dma::system.l2.cpu_side       315192                       # Cumulative packet size per connected master and slave (bytes)
system.tol2bus.pkt_size_system.cpu2.icache.mem_side::system.l2.cpu_side     31839616                       # Cumulative packet size per connected master and slave (bytes)
system.tol2bus.pkt_size_system.cpu2.dcache.mem_side::system.l2.cpu_side     39847123                       # Cumulative packet size per connected master and slave (bytes)
system.tol2bus.pkt_size_system.cpu2.itb.walker.dma::system.l2.cpu_side       104920                       # Cumulative packet size per connected master and slave (bytes)
system.tol2bus.pkt_size_system.cpu2.dtb.walker.dma::system.l2.cpu_side       429636                       # Cumulative packet size per connected master and slave (bytes)
system.tol2bus.pkt_size_system.cpu3.icache.mem_side::system.l2.cpu_side     35197120                       # Cumulative packet size per connected master and slave (bytes)
system.tol2bus.pkt_size_system.cpu3.dcache.mem_side::system.l2.cpu_side     46251420                       # Cumulative packet size per connected master and slave (bytes)
system.tol2bus.pkt_size_system.cpu3.itb.walker.dma::system.l2.cpu_side        56284                       # Cumulative packet size per connected master and slave (bytes)
system.tol2bus.pkt_size_system.cpu3.dtb.walker.dma::system.l2.cpu_side       377868                       # Cumulative packet size per connected master and slave (bytes)
system.tol2bus.pkt_size_system.cpu4.icache.mem_side::system.l2.cpu_side     86800896                       # Cumulative packet size per connected master and slave (bytes)
system.tol2bus.pkt_size_system.cpu4.dcache.mem_side::system.l2.cpu_side     83654218                       # Cumulative packet size per connected master and slave (bytes)
system.tol2bus.pkt_size_system.cpu4.itb.walker.dma::system.l2.cpu_side        94008                       # Cumulative packet size per connected master and slave (bytes)
system.tol2bus.pkt_size_system.cpu4.dtb.walker.dma::system.l2.cpu_side       632384                       # Cumulative packet size per connected master and slave (bytes)
system.tol2bus.pkt_size_system.cpu5.icache.mem_side::system.l2.cpu_side     20536512                       # Cumulative packet size per connected master and slave (bytes)
system.tol2bus.pkt_size_system.cpu5.dcache.mem_side::system.l2.cpu_side     27499886                       # Cumulative packet size per connected master and slave (bytes)
system.tol2bus.pkt_size_system.cpu5.itb.walker.dma::system.l2.cpu_side        31976                       # Cumulative packet size per connected master and slave (bytes)
system.tol2bus.pkt_size_system.cpu5.dtb.walker.dma::system.l2.cpu_side       312384                       # Cumulative packet size per connected master and slave (bytes)
system.tol2bus.pkt_size_system.cpu6.icache.mem_side::system.l2.cpu_side     62556672                       # Cumulative packet size per connected master and slave (bytes)
system.tol2bus.pkt_size_system.cpu6.dcache.mem_side::system.l2.cpu_side     62254956                       # Cumulative packet size per connected master and slave (bytes)
system.tol2bus.pkt_size_system.cpu6.itb.walker.dma::system.l2.cpu_side        73284                       # Cumulative packet size per connected master and slave (bytes)
system.tol2bus.pkt_size_system.cpu6.dtb.walker.dma::system.l2.cpu_side       535372                       # Cumulative packet size per connected master and slave (bytes)
system.tol2bus.pkt_size_system.cpu7.icache.mem_side::system.l2.cpu_side     24220480                       # Cumulative packet size per connected master and slave (bytes)
system.tol2bus.pkt_size_system.cpu7.dcache.mem_side::system.l2.cpu_side     34914148                       # Cumulative packet size per connected master and slave (bytes)
system.tol2bus.pkt_size_system.cpu7.itb.walker.dma::system.l2.cpu_side        48304                       # Cumulative packet size per connected master and slave (bytes)
system.tol2bus.pkt_size_system.cpu7.dtb.walker.dma::system.l2.cpu_side       348400                       # Cumulative packet size per connected master and slave (bytes)
system.tol2bus.pkt_size::total              733466538                       # Cumulative packet size per connected master and slave (bytes)
system.tol2bus.snoops                         3445028                       # Total snoops (count)
system.tol2bus.snoop_fanout::samples         15902075                       # Request fanout histogram
system.tol2bus.snoop_fanout::mean           47.167829                       # Request fanout histogram
system.tol2bus.snoop_fanout::stdev           0.373714                       # Request fanout histogram
system.tol2bus.snoop_fanout::underflows             0      0.00%      0.00% # Request fanout histogram
system.tol2bus.snoop_fanout::0                      0      0.00%      0.00% # Request fanout histogram
system.tol2bus.snoop_fanout::1                      0      0.00%      0.00% # Request fanout histogram
system.tol2bus.snoop_fanout::2                      0      0.00%      0.00% # Request fanout histogram
system.tol2bus.snoop_fanout::3                      0      0.00%      0.00% # Request fanout histogram
system.tol2bus.snoop_fanout::4                      0      0.00%      0.00% # Request fanout histogram
system.tol2bus.snoop_fanout::5                      0      0.00%      0.00% # Request fanout histogram
system.tol2bus.snoop_fanout::6                      0      0.00%      0.00% # Request fanout histogram
system.tol2bus.snoop_fanout::7                      0      0.00%      0.00% # Request fanout histogram
system.tol2bus.snoop_fanout::8                      0      0.00%      0.00% # Request fanout histogram
system.tol2bus.snoop_fanout::9                      0      0.00%      0.00% # Request fanout histogram
system.tol2bus.snoop_fanout::10                     0      0.00%      0.00% # Request fanout histogram
system.tol2bus.snoop_fanout::11                     0      0.00%      0.00% # Request fanout histogram
system.tol2bus.snoop_fanout::12                     0      0.00%      0.00% # Request fanout histogram
system.tol2bus.snoop_fanout::13                     0      0.00%      0.00% # Request fanout histogram
system.tol2bus.snoop_fanout::14                     0      0.00%      0.00% # Request fanout histogram
system.tol2bus.snoop_fanout::15                     0      0.00%      0.00% # Request fanout histogram
system.tol2bus.snoop_fanout::16                     0      0.00%      0.00% # Request fanout histogram
system.tol2bus.snoop_fanout::17                     0      0.00%      0.00% # Request fanout histogram
system.tol2bus.snoop_fanout::18                     0      0.00%      0.00% # Request fanout histogram
system.tol2bus.snoop_fanout::19                     0      0.00%      0.00% # Request fanout histogram
system.tol2bus.snoop_fanout::20                     0      0.00%      0.00% # Request fanout histogram
system.tol2bus.snoop_fanout::21                     0      0.00%      0.00% # Request fanout histogram
system.tol2bus.snoop_fanout::22                     0      0.00%      0.00% # Request fanout histogram
system.tol2bus.snoop_fanout::23                     0      0.00%      0.00% # Request fanout histogram
system.tol2bus.snoop_fanout::24                     0      0.00%      0.00% # Request fanout histogram
system.tol2bus.snoop_fanout::25                     0      0.00%      0.00% # Request fanout histogram
system.tol2bus.snoop_fanout::26                     0      0.00%      0.00% # Request fanout histogram
system.tol2bus.snoop_fanout::27                     0      0.00%      0.00% # Request fanout histogram
system.tol2bus.snoop_fanout::28                     0      0.00%      0.00% # Request fanout histogram
system.tol2bus.snoop_fanout::29                     0      0.00%      0.00% # Request fanout histogram
system.tol2bus.snoop_fanout::30                     0      0.00%      0.00% # Request fanout histogram
system.tol2bus.snoop_fanout::31                     0      0.00%      0.00% # Request fanout histogram
system.tol2bus.snoop_fanout::32                     0      0.00%      0.00% # Request fanout histogram
system.tol2bus.snoop_fanout::33                     0      0.00%      0.00% # Request fanout histogram
system.tol2bus.snoop_fanout::34                     0      0.00%      0.00% # Request fanout histogram
system.tol2bus.snoop_fanout::35                     0      0.00%      0.00% # Request fanout histogram
system.tol2bus.snoop_fanout::36                     0      0.00%      0.00% # Request fanout histogram
system.tol2bus.snoop_fanout::37                     0      0.00%      0.00% # Request fanout histogram
system.tol2bus.snoop_fanout::38                     0      0.00%      0.00% # Request fanout histogram
system.tol2bus.snoop_fanout::39                     0      0.00%      0.00% # Request fanout histogram
system.tol2bus.snoop_fanout::40                     0      0.00%      0.00% # Request fanout histogram
system.tol2bus.snoop_fanout::41                     0      0.00%      0.00% # Request fanout histogram
system.tol2bus.snoop_fanout::42                     0      0.00%      0.00% # Request fanout histogram
system.tol2bus.snoop_fanout::43                     0      0.00%      0.00% # Request fanout histogram
system.tol2bus.snoop_fanout::44                     0      0.00%      0.00% # Request fanout histogram
system.tol2bus.snoop_fanout::45                     0      0.00%      0.00% # Request fanout histogram
system.tol2bus.snoop_fanout::46                     0      0.00%      0.00% # Request fanout histogram
system.tol2bus.snoop_fanout::47              13233249     83.22%     83.22% # Request fanout histogram
system.tol2bus.snoop_fanout::48               2668826     16.78%    100.00% # Request fanout histogram
system.tol2bus.snoop_fanout::overflows              0      0.00%    100.00% # Request fanout histogram
system.tol2bus.snoop_fanout::min_value             47                       # Request fanout histogram
system.tol2bus.snoop_fanout::max_value             48                       # Request fanout histogram
system.tol2bus.snoop_fanout::total           15902075                       # Request fanout histogram
system.tol2bus.reqLayer0.occupancy         8419668236                       # Layer occupancy (ticks)
system.tol2bus.reqLayer0.utilization              2.2                       # Layer utilization (%)
system.tol2bus.snoopLayer0.occupancy           835500                       # Layer occupancy (ticks)
system.tol2bus.snoopLayer0.utilization            0.0                       # Layer utilization (%)
system.tol2bus.respLayer0.occupancy        1055381016                       # Layer occupancy (ticks)
system.tol2bus.respLayer0.utilization             0.3                       # Layer utilization (%)
system.tol2bus.respLayer1.occupancy        1325013361                       # Layer occupancy (ticks)
system.tol2bus.respLayer1.utilization             0.3                       # Layer utilization (%)
system.tol2bus.respLayer2.occupancy          35657653                       # Layer occupancy (ticks)
system.tol2bus.respLayer2.utilization             0.0                       # Layer utilization (%)
system.tol2bus.respLayer3.occupancy         140509446                       # Layer occupancy (ticks)
system.tol2bus.respLayer3.utilization             0.0                       # Layer utilization (%)
system.tol2bus.respLayer6.occupancy         473567755                       # Layer occupancy (ticks)
system.tol2bus.respLayer6.utilization             0.1                       # Layer utilization (%)
system.tol2bus.respLayer7.occupancy         595446655                       # Layer occupancy (ticks)
system.tol2bus.respLayer7.utilization             0.2                       # Layer utilization (%)
system.tol2bus.respLayer8.occupancy          20412418                       # Layer occupancy (ticks)
system.tol2bus.respLayer8.utilization             0.0                       # Layer utilization (%)
system.tol2bus.respLayer9.occupancy          96909337                       # Layer occupancy (ticks)
system.tol2bus.respLayer9.utilization             0.0                       # Layer utilization (%)
system.tol2bus.respLayer12.occupancy        748491149                       # Layer occupancy (ticks)
system.tol2bus.respLayer12.utilization            0.2                       # Layer utilization (%)
system.tol2bus.respLayer13.occupancy        724449257                       # Layer occupancy (ticks)
system.tol2bus.respLayer13.utilization            0.2                       # Layer utilization (%)
system.tol2bus.respLayer14.occupancy         27682384                       # Layer occupancy (ticks)
system.tol2bus.respLayer14.utilization            0.0                       # Layer utilization (%)
system.tol2bus.respLayer15.occupancy        112499731                       # Layer occupancy (ticks)
system.tol2bus.respLayer15.utilization            0.0                       # Layer utilization (%)
system.tol2bus.respLayer18.occupancy        827370248                       # Layer occupancy (ticks)
system.tol2bus.respLayer18.utilization            0.2                       # Layer utilization (%)
system.tol2bus.respLayer19.occupancy        888277521                       # Layer occupancy (ticks)
system.tol2bus.respLayer19.utilization            0.2                       # Layer utilization (%)
system.tol2bus.respLayer20.occupancy         35312941                       # Layer occupancy (ticks)
system.tol2bus.respLayer20.utilization            0.0                       # Layer utilization (%)
system.tol2bus.respLayer21.occupancy        137042232                       # Layer occupancy (ticks)
system.tol2bus.respLayer21.utilization            0.0                       # Layer utilization (%)
system.tol2bus.respLayer24.occupancy       2038998166                       # Layer occupancy (ticks)
system.tol2bus.respLayer24.utilization            0.5                       # Layer utilization (%)
system.tol2bus.respLayer25.occupancy       1494559011                       # Layer occupancy (ticks)
system.tol2bus.respLayer25.utilization            0.4                       # Layer utilization (%)
system.tol2bus.respLayer26.occupancy         51861417                       # Layer occupancy (ticks)
system.tol2bus.respLayer26.utilization            0.0                       # Layer utilization (%)
system.tol2bus.respLayer27.occupancy        250483948                       # Layer occupancy (ticks)
system.tol2bus.respLayer27.utilization            0.1                       # Layer utilization (%)
system.tol2bus.respLayer30.occupancy        482616296                       # Layer occupancy (ticks)
system.tol2bus.respLayer30.utilization            0.1                       # Layer utilization (%)
[...]
system.cpu7.dcache.StoreCondFailReq_mshr_miss_latency::switch_cpus7.data         8000                       # number of StoreCondFailReq MSHR miss cycles
system.cpu7.dcache.StoreCondFailReq_mshr_miss_latency::total         8000                       # number of StoreCondFailReq MSHR miss cycles
system.cpu7.dcache.demand_mshr_miss_latency::switch_cpus7.data   3878726376                       # number of demand (read+write) MSHR miss cycles
system.cpu7.dcache.demand_mshr_miss_latency::total   3878726376                       # number of demand (read+write) MSHR miss cycles
system.cpu7.dcache.overall_mshr_miss_latency::switch_cpus7.data   4841677943                       # number of overall MSHR miss cycles
system.cpu7.dcache.overall_mshr_miss_latency::total   4841677943                       # number of overall MSHR miss cycles
system.cpu7.dcache.ReadReq_mshr_uncacheable_latency::switch_cpus7.data     12622497                       # number of ReadReq MSHR uncacheable cycles
system.cpu7.dcache.ReadReq_mshr_uncacheable_latency::total     12622497                       # number of ReadReq MSHR uncacheable cycles
system.cpu7.dcache.WriteReq_mshr_uncacheable_latency::switch_cpus7.data      9600495                       # number of WriteReq MSHR uncacheable cycles
system.cpu7.dcache.WriteReq_mshr_uncacheable_latency::total      9600495                       # number of WriteReq MSHR uncacheable cycles
system.cpu7.dcache.overall_mshr_uncacheable_latency::switch_cpus7.data     22222992                       # number of overall MSHR uncacheable cycles
system.cpu7.dcache.overall_mshr_uncacheable_latency::total     22222992                       # number of overall MSHR uncacheable cycles
system.cpu7.dcache.ReadReq_mshr_miss_rate::switch_cpus7.data     0.004516                       # mshr miss rate for ReadReq accesses
system.cpu7.dcache.ReadReq_mshr_miss_rate::total     0.004516                       # mshr miss rate for ReadReq accesses
system.cpu7.dcache.WriteReq_mshr_miss_rate::switch_cpus7.data     0.002648                       # mshr miss rate for WriteReq accesses
system.cpu7.dcache.WriteReq_mshr_miss_rate::total     0.002648                       # mshr miss rate for WriteReq accesses
system.cpu7.dcache.SoftPFReq_mshr_miss_rate::switch_cpus7.data     0.444752                       # mshr miss rate for SoftPFReq accesses
system.cpu7.dcache.SoftPFReq_mshr_miss_rate::total     0.444752                       # mshr miss rate for SoftPFReq accesses
system.cpu7.dcache.LoadLockedReq_mshr_miss_rate::switch_cpus7.data     0.023309                       # mshr miss rate for LoadLockedReq accesses
system.cpu7.dcache.LoadLockedReq_mshr_miss_rate::total     0.023309                       # mshr miss rate for LoadLockedReq accesses
system.cpu7.dcache.StoreCondReq_mshr_miss_rate::switch_cpus7.data     0.096282                       # mshr miss rate for StoreCondReq accesses
system.cpu7.dcache.StoreCondReq_mshr_miss_rate::total     0.096282                       # mshr miss rate for StoreCondReq accesses
system.cpu7.dcache.demand_mshr_miss_rate::switch_cpus7.data     0.003796                       # mshr miss rate for demand accesses
system.cpu7.dcache.demand_mshr_miss_rate::total     0.003796                       # mshr miss rate for demand accesses
system.cpu7.dcache.overall_mshr_miss_rate::switch_cpus7.data     0.004230                       # mshr miss rate for overall accesses
system.cpu7.dcache.overall_mshr_miss_rate::total     0.004230                       # mshr miss rate for overall accesses
system.cpu7.dcache.ReadReq_avg_mshr_miss_latency::switch_cpus7.data  9577.414397                       # average ReadReq mshr miss latency
system.cpu7.dcache.ReadReq_avg_mshr_miss_latency::total  9577.414397                       # average ReadReq mshr miss latency
system.cpu7.dcache.WriteReq_avg_mshr_miss_latency::switch_cpus7.data 10788.151382                       # average WriteReq mshr miss latency
system.cpu7.dcache.WriteReq_avg_mshr_miss_latency::total 10788.151382                       # average WriteReq mshr miss latency
system.cpu7.dcache.SoftPFReq_avg_mshr_miss_latency::switch_cpus7.data 21343.430791                       # average SoftPFReq mshr miss latency
system.cpu7.dcache.SoftPFReq_avg_mshr_miss_latency::total 21343.430791                       # average SoftPFReq mshr miss latency
system.cpu7.dcache.LoadLockedReq_avg_mshr_miss_latency::switch_cpus7.data 21669.492373                       # average LoadLockedReq mshr miss latency
system.cpu7.dcache.LoadLockedReq_avg_mshr_miss_latency::total 21669.492373                       # average LoadLockedReq mshr miss latency
system.cpu7.dcache.StoreCondReq_avg_mshr_miss_latency::switch_cpus7.data  2692.698988                       # average StoreCondReq mshr miss latency
system.cpu7.dcache.StoreCondReq_avg_mshr_miss_latency::total  2692.698988                       # average StoreCondReq mshr miss latency
system.cpu7.dcache.StoreCondFailReq_avg_mshr_miss_latency::switch_cpus7.data          inf                       # average StoreCondFailReq mshr miss latency
system.cpu7.dcache.StoreCondFailReq_avg_mshr_miss_latency::total          inf                       # average StoreCondFailReq mshr miss latency
system.cpu7.dcache.demand_avg_mshr_miss_latency::switch_cpus7.data  9902.819339                       # average overall mshr miss latency
system.cpu7.dcache.demand_avg_mshr_miss_latency::total  9902.819339                       # average overall mshr miss latency
system.cpu7.dcache.overall_avg_mshr_miss_latency::switch_cpus7.data 11084.529032                       # average overall mshr miss latency
system.cpu7.dcache.overall_avg_mshr_miss_latency::total 11084.529032                       # average overall mshr miss latency
system.cpu7.dcache.ReadReq_avg_mshr_uncacheable_latency::switch_cpus7.data          inf                       # average ReadReq mshr uncacheable latency
system.cpu7.dcache.ReadReq_avg_mshr_uncacheable_latency::total          inf                       # average ReadReq mshr uncacheable latency
system.cpu7.dcache.WriteReq_avg_mshr_uncacheable_latency::switch_cpus7.data          inf                       # average WriteReq mshr uncacheable latency
system.cpu7.dcache.WriteReq_avg_mshr_uncacheable_latency::total          inf                       # average WriteReq mshr uncacheable latency
system.cpu7.dcache.overall_avg_mshr_uncacheable_latency::switch_cpus7.data          inf                       # average overall mshr uncacheable latency
system.cpu7.dcache.overall_avg_mshr_uncacheable_latency::total          inf                       # average overall mshr uncacheable latency
system.cpu7.dcache.no_allocate_misses               0                       # Number of misses that were no-allocate
system.iocache.tags.replacements                81919                       # number of replacements
system.iocache.tags.tagsinuse               15.972533                       # Cycle average of tags in use
system.iocache.tags.total_refs                      0                       # Total number of references to valid blocks.
system.iocache.tags.sampled_refs                81935                       # Sample count of references to valid blocks.
system.iocache.tags.avg_refs                        0                       # Average number of references to valid blocks.
system.iocache.tags.warmup_cycle         3236239852000                       # Cycle when the warmup percentage was hit.
system.iocache.tags.occ_blocks::realview.ide    15.972533                       # Average occupied blocks per requestor
system.iocache.tags.occ_percent::realview.ide     0.998283                       # Average percentage of cache occupancy
system.iocache.tags.occ_percent::total       0.998283                       # Average percentage of cache occupancy
system.iocache.tags.occ_task_id_blocks::1023           16                       # Occupied blocks per task id
system.iocache.tags.age_task_id_blocks_1023::4           16                       # Occupied blocks per task id
system.iocache.tags.occ_task_id_percent::1023            1                       # Percentage of cache occupancy per task id
system.iocache.tags.tag_accesses               741615                       # Number of tag accesses
system.iocache.tags.data_accesses              741615                       # Number of data accesses
system.iocache.WriteInvalidateReq_hits::realview.ide        81328                       # number of WriteInvalidateReq hits
system.iocache.WriteInvalidateReq_hits::total        81328                       # number of WriteInvalidateReq hits
system.iocache.ReadReq_misses::realview.ide          607                       # number of ReadReq misses
system.iocache.ReadReq_misses::total              607                       # number of ReadReq misses
system.iocache.WriteInvalidateReq_misses::realview.ide          525                       # number of WriteInvalidateReq misses
system.iocache.WriteInvalidateReq_misses::total          525                       # number of WriteInvalidateReq misses
system.iocache.demand_misses::realview.ide          607                       # number of demand (read+write) misses
system.iocache.demand_misses::total               607                       # number of demand (read+write) misses
system.iocache.overall_misses::realview.ide          607                       # number of overall misses
system.iocache.overall_misses::total              607                       # number of overall misses
system.iocache.ReadReq_miss_latency::realview.ide     66423885                       # number of ReadReq miss cycles
system.iocache.ReadReq_miss_latency::total     66423885                       # number of ReadReq miss cycles
system.iocache.demand_miss_latency::realview.ide     66423885                       # number of demand (read+write) miss cycles
system.iocache.demand_miss_latency::total     66423885                       # number of demand (read+write) miss cycles
system.iocache.overall_miss_latency::realview.ide     66423885                       # number of overall miss cycles
system.iocache.overall_miss_latency::total     66423885                       # number of overall miss cycles
system.iocache.ReadReq_accesses::realview.ide          607                       # number of ReadReq accesses(hits+misses)
system.iocache.ReadReq_accesses::total            607                       # number of ReadReq accesses(hits+misses)
system.iocache.WriteInvalidateReq_accesses::realview.ide        81853                       # number of WriteInvalidateReq accesses(hits+misses)
system.iocache.WriteInvalidateReq_accesses::total        81853                       # number of WriteInvalidateReq accesses(hits+misses)
system.iocache.demand_accesses::realview.ide          607                       # number of demand (read+write) accesses
system.iocache.demand_accesses::total             607                       # number of demand (read+write) accesses
system.iocache.overall_accesses::realview.ide          607                       # number of overall (read+write) accesses
system.iocache.overall_accesses::total            607                       # number of overall (read+write) accesses
system.iocache.ReadReq_miss_rate::realview.ide            1                       # miss rate for ReadReq accesses
system.iocache.ReadReq_miss_rate::total             1                       # miss rate for ReadReq accesses
system.iocache.WriteInvalidateReq_miss_rate::realview.ide     0.006414                       # miss rate for WriteInvalidateReq accesses
system.iocache.WriteInvalidateReq_miss_rate::total     0.006414                       # miss rate for WriteInvalidateReq accesses
system.iocache.demand_miss_rate::realview.ide            1                       # miss rate for demand accesses
system.iocache.demand_miss_rate::total              1                       # miss rate for demand accesses
system.iocache.overall_miss_rate::realview.ide            1                       # miss rate for overall accesses
system.iocache.overall_miss_rate::total             1                       # miss rate for overall accesses
system.iocache.ReadReq_avg_miss_latency::realview.ide 109429.794069                       # average ReadReq miss latency
system.iocache.ReadReq_avg_miss_latency::total 109429.794069                       # average ReadReq miss latency
system.iocache.demand_avg_miss_latency::realview.ide 109429.794069                       # average overall miss latency
system.iocache.demand_avg_miss_latency::total 109429.794069                       # average overall miss latency
system.iocache.overall_avg_miss_latency::realview.ide 109429.794069                       # average overall miss latency
system.iocache.overall_avg_miss_latency::total 109429.794069                       # average overall miss latency
system.iocache.blocked_cycles::no_mshrs             0                       # number of cycles access was blocked
system.iocache.blocked_cycles::no_targets            0                       # number of cycles access was blocked
system.iocache.blocked::no_mshrs                    0                       # number of cycles access was blocked
system.iocache.blocked::no_targets                  0                       # number of cycles access was blocked
system.iocache.avg_blocked_cycles::no_mshrs          nan                       # average number of cycles each access was blocked
system.iocache.avg_blocked_cycles::no_targets          nan                       # average number of cycles each access was blocked
system.iocache.fast_writes                      81328                       # number of fast writes performed
system.iocache.cache_copies                         0                       # number of cache copies performed
system.iocache.ReadReq_mshr_misses::realview.ide          607                       # number of ReadReq MSHR misses
system.iocache.ReadReq_mshr_misses::total          607                       # number of ReadReq MSHR misses
system.iocache.WriteInvalidateReq_mshr_misses::realview.ide        81328                       # number of WriteInvalidateReq MSHR misses
system.iocache.WriteInvalidateReq_mshr_misses::total        81328                       # number of WriteInvalidateReq MSHR misses
system.iocache.demand_mshr_misses::realview.ide          607                       # number of demand (read+write) MSHR misses
system.iocache.demand_mshr_misses::total          607                       # number of demand (read+write) MSHR misses
system.iocache.overall_mshr_misses::realview.ide          607                       # number of overall MSHR misses
system.iocache.overall_mshr_misses::total          607                       # number of overall MSHR misses
system.iocache.ReadReq_mshr_miss_latency::realview.ide     34859885                       # number of ReadReq MSHR miss cycles
system.iocache.ReadReq_mshr_miss_latency::total     34859885                       # number of ReadReq MSHR miss cycles
system.iocache.WriteInvalidateReq_mshr_miss_latency::realview.ide   6441263103                       # number of WriteInvalidateReq MSHR miss cycles
system.iocache.WriteInvalidateReq_mshr_miss_latency::total   6441263103                       # number of WriteInvalidateReq MSHR miss cycles
system.iocache.demand_mshr_miss_latency::realview.ide     34859885                       # number of demand (read+write) MSHR miss cycles
system.iocache.demand_mshr_miss_latency::total     34859885                       # number of demand (read+write) MSHR miss cycles
system.iocache.overall_mshr_miss_latency::realview.ide     34859885                       # number of overall MSHR miss cycles
system.iocache.overall_mshr_miss_latency::total     34859885                       # number of overall MSHR miss cycles
system.iocache.ReadReq_mshr_miss_rate::realview.ide            1                       # mshr miss rate for ReadReq accesses
system.iocache.ReadReq_mshr_miss_rate::total            1                       # mshr miss rate for ReadReq accesses
system.iocache.WriteInvalidateReq_mshr_miss_rate::realview.ide     0.993586                       # mshr miss rate for WriteInvalidateReq accesses
system.iocache.WriteInvalidateReq_mshr_miss_rate::total     0.993586                       # mshr miss rate for WriteInvalidateReq accesses
system.iocache.demand_mshr_miss_rate::realview.ide            1                       # mshr miss rate for demand accesses
system.iocache.demand_mshr_miss_rate::total            1                       # mshr miss rate for demand accesses
system.iocache.overall_mshr_miss_rate::realview.ide            1                       # mshr miss rate for overall accesses
system.iocache.overall_mshr_miss_rate::total            1                       # mshr miss rate for overall accesses
system.iocache.ReadReq_avg_mshr_miss_latency::realview.ide 57429.794069                       # average ReadReq mshr miss latency
system.iocache.ReadReq_avg_mshr_miss_latency::total 57429.794069                       # average ReadReq mshr miss latency
system.iocache.WriteInvalidateReq_avg_mshr_miss_latency::realview.ide 79201.051335                       # average WriteInvalidateReq mshr miss latency
system.iocache.WriteInvalidateReq_avg_mshr_miss_latency::total 79201.051335                       # average WriteInvalidateReq mshr miss latency
system.iocache.demand_avg_mshr_miss_latency::realview.ide 57429.794069                       # average overall mshr miss latency
system.iocache.demand_avg_mshr_miss_latency::total 57429.794069                       # average overall mshr miss latency
system.iocache.overall_avg_mshr_miss_latency::realview.ide 57429.794069                       # average overall mshr miss latency
system.iocache.overall_avg_mshr_miss_latency::total 57429.794069                       # average overall mshr miss latency
system.iocache.no_allocate_misses                   0                       # Number of misses that were no-allocate
system.switch_cpus0.kern.inst.arm                   0                       # number of arm instructions executed
system.switch_cpus0.kern.inst.quiesce               0                       # number of quiesce instructions executed
system.switch_cpus1.kern.inst.arm                   0                       # number of arm instructions executed
system.switch_cpus1.kern.inst.quiesce               0                       # number of quiesce instructions executed
system.switch_cpus2.kern.inst.arm                   0                       # number of arm instructions executed
system.switch_cpus2.kern.inst.quiesce               0                       # number of quiesce instructions executed
system.switch_cpus3.kern.inst.arm                   0                       # number of arm instructions executed
system.switch_cpus3.kern.inst.quiesce               0                       # number of quiesce instructions executed
system.switch_cpus4.kern.inst.arm                   0                       # number of arm instructions executed
system.switch_cpus4.kern.inst.quiesce               0                       # number of quiesce instructions executed
system.switch_cpus5.kern.inst.arm                   0                       # number of arm instructions executed
system.switch_cpus5.kern.inst.quiesce               0                       # number of quiesce instructions executed
system.switch_cpus6.kern.inst.arm                   0                       # number of arm instructions executed
system.switch_cpus6.kern.inst.quiesce               0                       # number of quiesce instructions executed
system.switch_cpus7.kern.inst.arm                   0                       # number of arm instructions executed
system.switch_cpus7.kern.inst.quiesce               0                       # number of quiesce instructions executed

---------- End Simulation Statistics   ----------
