
---------- Begin Simulation Statistics ----------
sim_seconds                                  0.041412                       # Number of seconds simulated
sim_ticks                                 41411746500                       # Number of ticks simulated
final_tick                               3423375485500                       # Number of ticks from beginning of simulation (restored from checkpoints and never reset)
sim_freq                                 1000000000000                       # Frequency of simulated ticks
host_inst_rate                                 207979                       # Simulator instruction rate (inst/s)
host_op_rate                                   215312                       # Simulator op (including micro ops) rate (op/s)
host_tick_rate                               10319101                       # Simulator tick rate (ticks/s)
host_mem_usage                                 980584                       # Number of bytes of host memory used
host_seconds                                  4013.12                       # Real time elapsed on the host
sim_insts                                   834643861                       # Number of instructions simulated
sim_ops                                     864071102                       # Number of ops (including micro ops) simulated
system.voltage_domain.voltage                       1                       # Voltage in Volts
system.clk_domain.clock                          1000                       # Clock period in ticks
system.mem_ctrls.bytes_read::switch_cpus0.dtb.walker        22784                       # Number of bytes read from this memory
system.mem_ctrls.bytes_read::switch_cpus0.itb.walker         3584                       # Number of bytes read from this memory
system.mem_ctrls.bytes_read::switch_cpus0.inst        73344                       # Number of bytes read from this memory
system.mem_ctrls.bytes_read::switch_cpus0.data       848256                       # Number of bytes read from this memory
system.mem_ctrls.bytes_read::switch_cpus1.dtb.walker        31232                       # Number of bytes read from this memory
system.mem_ctrls.bytes_read::switch_cpus1.itb.walker          960                       # Number of bytes read from this memory
system.mem_ctrls.bytes_read::switch_cpus1.inst        12928                       # Number of bytes read from this memory
system.mem_ctrls.bytes_read::switch_cpus1.data      1296448                       # Number of bytes read from this memory
system.mem_ctrls.bytes_read::switch_cpus2.dtb.walker         6656                       # Number of bytes read from this memory
system.mem_ctrls.bytes_read::switch_cpus2.itb.walker          448                       # Number of bytes read from this memory
system.mem_ctrls.bytes_read::switch_cpus2.inst         8704                       # Number of bytes read from this memory
system.mem_ctrls.bytes_read::switch_cpus2.data       707392                       # Number of bytes read from this memory
system.mem_ctrls.bytes_read::switch_cpus3.dtb.walker        20672                       # Number of bytes read from this memory
system.mem_ctrls.bytes_read::switch_cpus3.itb.walker         1856                       # Number of bytes read from this memory
system.mem_ctrls.bytes_read::switch_cpus3.inst        54464                       # Number of bytes read from this memory
system.mem_ctrls.bytes_read::switch_cpus3.data       876032                       # Number of bytes read from this memory
system.mem_ctrls.bytes_read::switch_cpus4.dtb.walker        26624                       # Number of bytes read from this memory
system.mem_ctrls.bytes_read::switch_cpus4.itb.walker          704                       # Number of bytes read from this memory
system.mem_ctrls.bytes_read::switch_cpus4.inst        46528                       # Number of bytes read from this memory
system.mem_ctrls.bytes_read::switch_cpus4.data       801728                       # Number of bytes read from this memory
system.mem_ctrls.bytes_read::switch_cpus5.dtb.walker         9280                       # Number of bytes read from this memory
system.mem_ctrls.bytes_read::switch_cpus5.itb.walker         2880                       # Number of bytes read from this memory
system.mem_ctrls.bytes_read::switch_cpus5.inst       305600                       # Number of bytes read from this memory
system.mem_ctrls.bytes_read::switch_cpus5.data      1019840                       # Number of bytes read from this memory
system.mem_ctrls.bytes_read::switch_cpus6.dtb.walker         4992                       # Number of bytes read from this memory
system.mem_ctrls.bytes_read::switch_cpus6.itb.walker          384                       # Number of bytes read from this memory
system.mem_ctrls.bytes_read::switch_cpus6.inst        15872                       # Number of bytes read from this memory
system.mem_ctrls.bytes_read::switch_cpus6.data       652992                       # Number of bytes read from this memory
system.mem_ctrls.bytes_read::switch_cpus7.dtb.walker         5440                       # Number of bytes read from this memory
system.mem_ctrls.bytes_read::switch_cpus7.itb.walker          320                       # Number of bytes read from this memory
system.mem_ctrls.bytes_read::switch_cpus7.inst         5568                       # Number of bytes read from this memory
system.mem_ctrls.bytes_read::switch_cpus7.data       808064                       # Number of bytes read from this memory
system.mem_ctrls.bytes_read::l2.prefetcher      9313728                       # Number of bytes read from this memory
system.mem_ctrls.bytes_read::cpu0.itb.walker          128                       # Number of bytes read from this memory
system.mem_ctrls.bytes_read::cpu0.inst            256                       # Number of bytes read from this memory
system.mem_ctrls.bytes_read::cpu0.data            192                       # Number of bytes read from this memory
system.mem_ctrls.bytes_read::cpu3.inst            192                       # Number of bytes read from this memory
system.mem_ctrls.bytes_read::cpu3.data            128                       # Number of bytes read from this memory
system.mem_ctrls.bytes_read::cpu4.inst            192                       # Number of bytes read from this memory
system.mem_ctrls.bytes_read::cpu4.data            192                       # Number of bytes read from this memory
system.mem_ctrls.bytes_read::cpu5.inst            128                       # Number of bytes read from this memory
system.mem_ctrls.bytes_read::cpu5.data            256                       # Number of bytes read from this memory
system.mem_ctrls.bytes_read::total           16987968                       # Number of bytes read from this memory
system.mem_ctrls.bytes_inst_read::switch_cpus0.inst        73344                       # Number of instructions bytes read from this memory
system.mem_ctrls.bytes_inst_read::switch_cpus1.inst        12928                       # Number of instructions bytes read from this memory
system.mem_ctrls.bytes_inst_read::switch_cpus2.inst         8704                       # Number of instructions bytes read from this memory
system.mem_ctrls.bytes_inst_read::switch_cpus3.inst        54464                       # Number of instructions bytes read from this memory
system.mem_ctrls.bytes_inst_read::switch_cpus4.inst        46528                       # Number of instructions bytes read from this memory
system.mem_ctrls.bytes_inst_read::switch_cpus5.inst       305600                       # Number of instructions bytes read from this memory
system.mem_ctrls.bytes_inst_read::switch_cpus6.inst        15872                       # Number of instructions bytes read from this memory
system.mem_ctrls.bytes_inst_read::switch_cpus7.inst         5568                       # Number of instructions bytes read from this memory
system.mem_ctrls.bytes_inst_read::cpu0.inst          256                       # Number of instructions bytes read from this memory
system.mem_ctrls.bytes_inst_read::cpu3.inst          192                       # Number of instructions bytes read from this memory
system.mem_ctrls.bytes_inst_read::cpu4.inst          192                       # Number of instructions bytes read from this memory
system.mem_ctrls.bytes_inst_read::cpu5.inst          128                       # Number of instructions bytes read from this memory
system.mem_ctrls.bytes_inst_read::total        523776                       # Number of instructions bytes read from this memory
system.mem_ctrls.bytes_written::writebacks      6614528                       # Number of bytes written to this memory
system.mem_ctrls.bytes_written::total         6614528                       # Number of bytes written to this memory
system.mem_ctrls.num_reads::switch_cpus0.dtb.walker          356                       # Number of read requests responded to by this memory
system.mem_ctrls.num_reads::switch_cpus0.itb.walker           56                       # Number of read requests responded to by this memory
system.mem_ctrls.num_reads::switch_cpus0.inst         1146                       # Number of read requests responded to by this memory
system.mem_ctrls.num_reads::switch_cpus0.data        13254                       # Number of read requests responded to by this memory
system.mem_ctrls.num_reads::switch_cpus1.dtb.walker          488                       # Number of read requests responded to by this memory
system.mem_ctrls.num_reads::switch_cpus1.itb.walker           15                       # Number of read requests responded to by this memory
system.mem_ctrls.num_reads::switch_cpus1.inst          202                       # Number of read requests responded to by this memory
system.mem_ctrls.num_reads::switch_cpus1.data        20257                       # Number of read requests responded to by this memory
system.mem_ctrls.num_reads::switch_cpus2.dtb.walker          104                       # Number of read requests responded to by this memory
system.mem_ctrls.num_reads::switch_cpus2.itb.walker            7                       # Number of read requests responded to by this memory
system.mem_ctrls.num_reads::switch_cpus2.inst          136                       # Number of read requests responded to by this memory
system.mem_ctrls.num_reads::switch_cpus2.data        11053                       # Number of read requests responded to by this memory
system.mem_ctrls.num_reads::switch_cpus3.dtb.walker          323                       # Number of read requests responded to by this memory
system.mem_ctrls.num_reads::switch_cpus3.itb.walker           29                       # Number of read requests responded to by this memory
system.mem_ctrls.num_reads::switch_cpus3.inst          851                       # Number of read requests responded to by this memory
system.mem_ctrls.num_reads::switch_cpus3.data        13688                       # Number of read requests responded to by this memory
system.mem_ctrls.num_reads::switch_cpus4.dtb.walker          416                       # Number of read requests responded to by this memory
system.mem_ctrls.num_reads::switch_cpus4.itb.walker           11                       # Number of read requests responded to by this memory
system.mem_ctrls.num_reads::switch_cpus4.inst          727                       # Number of read requests responded to by this memory
system.mem_ctrls.num_reads::switch_cpus4.data        12527                       # Number of read requests responded to by this memory
system.mem_ctrls.num_reads::switch_cpus5.dtb.walker          145                       # Number of read requests responded to by this memory
system.mem_ctrls.num_reads::switch_cpus5.itb.walker           45                       # Number of read requests responded to by this memory
system.mem_ctrls.num_reads::switch_cpus5.inst         4775                       # Number of read requests responded to by this memory
system.mem_ctrls.num_reads::switch_cpus5.data        15935                       # Number of read requests responded to by this memory
system.mem_ctrls.num_reads::switch_cpus6.dtb.walker           78                       # Number of read requests responded to by this memory
system.mem_ctrls.num_reads::switch_cpus6.itb.walker            6                       # Number of read requests responded to by this memory
system.mem_ctrls.num_reads::switch_cpus6.inst          248                       # Number of read requests responded to by this memory
system.mem_ctrls.num_reads::switch_cpus6.data        10203                       # Number of read requests responded to by this memory
system.mem_ctrls.num_reads::switch_cpus7.dtb.walker           85                       # Number of read requests responded to by this memory
system.mem_ctrls.num_reads::switch_cpus7.itb.walker            5                       # Number of read requests responded to by this memory
system.mem_ctrls.num_reads::switch_cpus7.inst           87                       # Number of read requests responded to by this memory
system.mem_ctrls.num_reads::switch_cpus7.data        12626                       # Number of read requests responded to by this memory
system.mem_ctrls.num_reads::l2.prefetcher       145527                       # Number of read requests responded to by this memory
system.mem_ctrls.num_reads::cpu0.itb.walker            2                       # Number of read requests responded to by this memory
system.mem_ctrls.num_reads::cpu0.inst               4                       # Number of read requests responded to by this memory
system.mem_ctrls.num_reads::cpu0.data               3                       # Number of read requests responded to by this memory
system.mem_ctrls.num_reads::cpu3.inst               3                       # Number of read requests responded to by this memory
system.mem_ctrls.num_reads::cpu3.data               2                       # Number of read requests responded to by this memory
system.mem_ctrls.num_reads::cpu4.inst               3                       # Number of read requests responded to by this memory
system.mem_ctrls.num_reads::cpu4.data               3                       # Number of read requests responded to by this memory
system.mem_ctrls.num_reads::cpu5.inst               2                       # Number of read requests responded to by this memory
system.mem_ctrls.num_reads::cpu5.data               4                       # Number of read requests responded to by this memory
system.mem_ctrls.num_reads::total              265437                       # Number of read requests responded to by this memory
system.mem_ctrls.num_writes::writebacks        103352                       # Number of write requests responded to by this memory
system.mem_ctrls.num_writes::total             103352                       # Number of write requests responded to by this memory
system.mem_ctrls.bw_read::switch_cpus0.dtb.walker       550182                       # Total read bandwidth from this memory (bytes/s)
system.mem_ctrls.bw_read::switch_cpus0.itb.walker        86545                       # Total read bandwidth from this memory (bytes/s)
system.mem_ctrls.bw_read::switch_cpus0.inst      1771092                       # Total read bandwidth from this memory (bytes/s)
system.mem_ctrls.bw_read::switch_cpus0.data     20483464                       # Total read bandwidth from this memory (bytes/s)
system.mem_ctrls.bw_read::switch_cpus1.dtb.walker       754182                       # Total read bandwidth from this memory (bytes/s)
system.mem_ctrls.bw_read::switch_cpus1.itb.walker        23182                       # Total read bandwidth from this memory (bytes/s)
system.mem_ctrls.bw_read::switch_cpus1.inst       312182                       # Total read bandwidth from this memory (bytes/s)
system.mem_ctrls.bw_read::switch_cpus1.data     31306286                       # Total read bandwidth from this memory (bytes/s)
system.mem_ctrls.bw_read::switch_cpus2.dtb.walker       160727                       # Total read bandwidth from this memory (bytes/s)
system.mem_ctrls.bw_read::switch_cpus2.itb.walker        10818                       # Total read bandwidth from this memory (bytes/s)
system.mem_ctrls.bw_read::switch_cpus2.inst       210182                       # Total read bandwidth from this memory (bytes/s)
system.mem_ctrls.bw_read::switch_cpus2.data     17081917                       # Total read bandwidth from this memory (bytes/s)
system.mem_ctrls.bw_read::switch_cpus3.dtb.walker       499182                       # Total read bandwidth from this memory (bytes/s)
system.mem_ctrls.bw_read::switch_cpus3.itb.walker        44818                       # Total read bandwidth from this memory (bytes/s)
system.mem_ctrls.bw_read::switch_cpus3.inst      1315182                       # Total read bandwidth from this memory (bytes/s)
system.mem_ctrls.bw_read::switch_cpus3.data     21154191                       # Total read bandwidth from this memory (bytes/s)
system.mem_ctrls.bw_read::switch_cpus4.dtb.walker       642909                       # Total read bandwidth from this memory (bytes/s)
system.mem_ctrls.bw_read::switch_cpus4.itb.walker        17000                       # Total read bandwidth from this memory (bytes/s)
system.mem_ctrls.bw_read::switch_cpus4.inst      1123546                       # Total read bandwidth from this memory (bytes/s)
system.mem_ctrls.bw_read::switch_cpus4.data     19359918                       # Total read bandwidth from this memory (bytes/s)
system.mem_ctrls.bw_read::switch_cpus5.dtb.walker       224091                       # Total read bandwidth from this memory (bytes/s)
system.mem_ctrls.bw_read::switch_cpus5.itb.walker        69545                       # Total read bandwidth from this memory (bytes/s)
system.mem_ctrls.bw_read::switch_cpus5.inst      7379549                       # Total read bandwidth from this memory (bytes/s)
system.mem_ctrls.bw_read::switch_cpus5.data     24626829                       # Total read bandwidth from this memory (bytes/s)
system.mem_ctrls.bw_read::switch_cpus6.dtb.walker       120546                       # Total read bandwidth from this memory (bytes/s)
system.mem_ctrls.bw_read::switch_cpus6.itb.walker         9273                       # Total read bandwidth from this memory (bytes/s)
system.mem_ctrls.bw_read::switch_cpus6.inst       383273                       # Total read bandwidth from this memory (bytes/s)
system.mem_ctrls.bw_read::switch_cpus6.data     15768280                       # Total read bandwidth from this memory (bytes/s)
system.mem_ctrls.bw_read::switch_cpus7.dtb.walker       131364                       # Total read bandwidth from this memory (bytes/s)
system.mem_ctrls.bw_read::switch_cpus7.itb.walker         7727                       # Total read bandwidth from this memory (bytes/s)
system.mem_ctrls.bw_read::switch_cpus7.inst       134455                       # Total read bandwidth from this memory (bytes/s)
system.mem_ctrls.bw_read::switch_cpus7.data     19512918                       # Total read bandwidth from this memory (bytes/s)
system.mem_ctrls.bw_read::l2.prefetcher     224905463                       # Total read bandwidth from this memory (bytes/s)
system.mem_ctrls.bw_read::cpu0.itb.walker         3091                       # Total read bandwidth from this memory (bytes/s)
system.mem_ctrls.bw_read::cpu0.inst              6182                       # Total read bandwidth from this memory (bytes/s)
system.mem_ctrls.bw_read::cpu0.data              4636                       # Total read bandwidth from this memory (bytes/s)
system.mem_ctrls.bw_read::cpu3.inst              4636                       # Total read bandwidth from this memory (bytes/s)
system.mem_ctrls.bw_read::cpu3.data              3091                       # Total read bandwidth from this memory (bytes/s)
system.mem_ctrls.bw_read::cpu4.inst              4636                       # Total read bandwidth from this memory (bytes/s)
system.mem_ctrls.bw_read::cpu4.data              4636                       # Total read bandwidth from this memory (bytes/s)
system.mem_ctrls.bw_read::cpu5.inst              3091                       # Total read bandwidth from this memory (bytes/s)
system.mem_ctrls.bw_read::cpu5.data              6182                       # Total read bandwidth from this memory (bytes/s)
system.mem_ctrls.bw_read::total             410220999                       # Total read bandwidth from this memory (bytes/s)
system.mem_ctrls.bw_inst_read::switch_cpus0.inst      1771092                       # Instruction read bandwidth from this memory (bytes/s)
system.mem_ctrls.bw_inst_read::switch_cpus1.inst       312182                       # Instruction read bandwidth from this memory (bytes/s)
system.mem_ctrls.bw_inst_read::switch_cpus2.inst       210182                       # Instruction read bandwidth from this memory (bytes/s)
system.mem_ctrls.bw_inst_read::switch_cpus3.inst      1315182                       # Instruction read bandwidth from this memory (bytes/s)
system.mem_ctrls.bw_inst_read::switch_cpus4.inst      1123546                       # Instruction read bandwidth from this memory (bytes/s)
system.mem_ctrls.bw_inst_read::switch_cpus5.inst      7379549                       # Instruction read bandwidth from this memory (bytes/s)
system.mem_ctrls.bw_inst_read::switch_cpus6.inst       383273                       # Instruction read bandwidth from this memory (bytes/s)
system.mem_ctrls.bw_inst_read::switch_cpus7.inst       134455                       # Instruction read bandwidth from this memory (bytes/s)
system.mem_ctrls.bw_inst_read::cpu0.inst         6182                       # Instruction read bandwidth from this memory (bytes/s)
system.mem_ctrls.bw_inst_read::cpu3.inst         4636                       # Instruction read bandwidth from this memory (bytes/s)
system.mem_ctrls.bw_inst_read::cpu4.inst         4636                       # Instruction read bandwidth from this memory (bytes/s)
system.mem_ctrls.bw_inst_read::cpu5.inst         3091                       # Instruction read bandwidth from this memory (bytes/s)
system.mem_ctrls.bw_inst_read::total         12648006                       # Instruction read bandwidth from this memory (bytes/s)
system.mem_ctrls.bw_write::writebacks       159725888                       # Write bandwidth from this memory (bytes/s)
system.mem_ctrls.bw_write::total            159725888                       # Write bandwidth from this memory (bytes/s)
system.mem_ctrls.bw_total::writebacks       159725888                       # Total bandwidth to/from this memory (bytes/s)
system.mem_ctrls.bw_total::switch_cpus0.dtb.walker       550182                       # Total bandwidth to/from this memory (bytes/s)
system.mem_ctrls.bw_total::switch_cpus0.itb.walker        86545                       # Total bandwidth to/from this memory (bytes/s)
system.mem_ctrls.bw_total::switch_cpus0.inst      1771092                       # Total bandwidth to/from this memory (bytes/s)
system.mem_ctrls.bw_total::switch_cpus0.data     20483464                       # Total bandwidth to/from this memory (bytes/s)
system.mem_ctrls.bw_total::switch_cpus1.dtb.walker       754182                       # Total bandwidth to/from this memory (bytes/s)
system.mem_ctrls.bw_total::switch_cpus1.itb.walker        23182                       # Total bandwidth to/from this memory (bytes/s)
system.mem_ctrls.bw_total::switch_cpus1.inst       312182                       # Total bandwidth to/from this memory (bytes/s)
system.mem_ctrls.bw_total::switch_cpus1.data     31306286                       # Total bandwidth to/from this memory (bytes/s)
system.mem_ctrls.bw_total::switch_cpus2.dtb.walker       160727                       # Total bandwidth to/from this memory (bytes/s)
system.mem_ctrls.bw_total::switch_cpus2.itb.walker        10818                       # Total bandwidth to/from this memory (bytes/s)
system.mem_ctrls.bw_total::switch_cpus2.inst       210182                       # Total bandwidth to/from this memory (bytes/s)
system.mem_ctrls.bw_total::switch_cpus2.data     17081917                       # Total bandwidth to/from this memory (bytes/s)
system.mem_ctrls.bw_total::switch_cpus3.dtb.walker       499182                       # Total bandwidth to/from this memory (bytes/s)
system.mem_ctrls.bw_total::switch_cpus3.itb.walker        44818                       # Total bandwidth to/from this memory (bytes/s)
system.mem_ctrls.bw_total::switch_cpus3.inst      1315182                       # Total bandwidth to/from this memory (bytes/s)
system.mem_ctrls.bw_total::switch_cpus3.data     21154191                       # Total bandwidth to/from this memory (bytes/s)
system.mem_ctrls.bw_total::switch_cpus4.dtb.walker       642909                       # Total bandwidth to/from this memory (bytes/s)
system.mem_ctrls.bw_total::switch_cpus4.itb.walker        17000                       # Total bandwidth to/from this memory (bytes/s)
system.mem_ctrls.bw_total::switch_cpus4.inst      1123546                       # Total bandwidth to/from this memory (bytes/s)
system.mem_ctrls.bw_total::switch_cpus4.data     19359918                       # Total bandwidth to/from this memory (bytes/s)
system.mem_ctrls.bw_total::switch_cpus5.dtb.walker       224091                       # Total bandwidth to/from this memory (bytes/s)
system.mem_ctrls.bw_total::switch_cpus5.itb.walker        69545                       # Total bandwidth to/from this memory (bytes/s)
system.mem_ctrls.bw_total::switch_cpus5.inst      7379549                       # Total bandwidth to/from this memory (bytes/s)
system.mem_ctrls.bw_total::switch_cpus5.data     24626829                       # Total bandwidth to/from this memory (bytes/s)
system.mem_ctrls.bw_total::switch_cpus6.dtb.walker       120546                       # Total bandwidth to/from this memory (bytes/s)
system.mem_ctrls.bw_total::switch_cpus6.itb.walker         9273                       # Total bandwidth to/from this memory (bytes/s)
system.mem_ctrls.bw_total::switch_cpus6.inst       383273                       # Total bandwidth to/from this memory (bytes/s)
system.mem_ctrls.bw_total::switch_cpus6.data     15768280                       # Total bandwidth to/from this memory (bytes/s)
system.mem_ctrls.bw_total::switch_cpus7.dtb.walker       131364                       # Total bandwidth to/from this memory (bytes/s)
system.mem_ctrls.bw_total::switch_cpus7.itb.walker         7727                       # Total bandwidth to/from this memory (bytes/s)
system.mem_ctrls.bw_total::switch_cpus7.inst       134455                       # Total bandwidth to/from this memory (bytes/s)
system.mem_ctrls.bw_total::switch_cpus7.data     19512918                       # Total bandwidth to/from this memory (bytes/s)
system.mem_ctrls.bw_total::l2.prefetcher    224905463                       # Total bandwidth to/from this memory (bytes/s)
system.mem_ctrls.bw_total::cpu0.itb.walker         3091                       # Total bandwidth to/from this memory (bytes/s)
system.mem_ctrls.bw_total::cpu0.inst             6182                       # Total bandwidth to/from this memory (bytes/s)
system.mem_ctrls.bw_total::cpu0.data             4636                       # Total bandwidth to/from this memory (bytes/s)
system.mem_ctrls.bw_total::cpu3.inst             4636                       # Total bandwidth to/from this memory (bytes/s)
system.mem_ctrls.bw_total::cpu3.data             3091                       # Total bandwidth to/from this memory (bytes/s)
system.mem_ctrls.bw_total::cpu4.inst             4636                       # Total bandwidth to/from this memory (bytes/s)
system.mem_ctrls.bw_total::cpu4.data             4636                       # Total bandwidth to/from this memory (bytes/s)
system.mem_ctrls.bw_total::cpu5.inst             3091                       # Total bandwidth to/from this memory (bytes/s)
system.mem_ctrls.bw_total::cpu5.data             6182                       # Total bandwidth to/from this memory (bytes/s)
system.mem_ctrls.bw_total::total            569946887                       # Total bandwidth to/from this memory (bytes/s)
system.mem_ctrls.readReqs                      265412                       # Number of read requests accepted
system.mem_ctrls.writeReqs                     103352                       # Number of write requests accepted
system.mem_ctrls.readBursts                    265412                       # Number of DRAM read bursts, including those serviced by the write queue
system.mem_ctrls.writeBursts                   103352                       # Number of DRAM write bursts, including those merged in the write queue
system.mem_ctrls.bytesReadDRAM               16981376                       # Total number of bytes read from DRAM
system.mem_ctrls.bytesReadWrQ                    4992                       # Total number of bytes read from write queue
system.mem_ctrls.bytesWritten                 6612864                       # Total number of bytes written to DRAM
system.mem_ctrls.bytesReadSys                16986368                       # Total read bytes from the system interface side
system.mem_ctrls.bytesWrittenSys              6614528                       # Total written bytes from the system interface side
system.mem_ctrls.servicedByWrQ                     78                       # Number of DRAM read bursts serviced by the write queue
system.mem_ctrls.mergedWrBursts                     0                       # Number of DRAM write bursts merged with an existing one
system.mem_ctrls.neitherReadNorWriteReqs         1997                       # Number of requests that are neither read nor write
system.mem_ctrls.perBankRdBursts::0             14696                       # Per bank write bursts
system.mem_ctrls.perBankRdBursts::1             15020                       # Per bank write bursts
system.mem_ctrls.perBankRdBursts::2             15878                       # Per bank write bursts
system.mem_ctrls.perBankRdBursts::3             18709                       # Per bank write bursts
system.mem_ctrls.perBankRdBursts::4             17565                       # Per bank write bursts
system.mem_ctrls.perBankRdBursts::5             16841                       # Per bank write bursts
system.mem_ctrls.perBankRdBursts::6             18450                       # Per bank write bursts
system.mem_ctrls.perBankRdBursts::7             18668                       # Per bank write bursts
system.mem_ctrls.perBankRdBursts::8             18194                       # Per bank write bursts
system.mem_ctrls.perBankRdBursts::9             20566                       # Per bank write bursts
system.mem_ctrls.perBankRdBursts::10            15981                       # Per bank write bursts
system.mem_ctrls.perBankRdBursts::11            15614                       # Per bank write bursts
system.mem_ctrls.perBankRdBursts::12            14914                       # Per bank write bursts
system.mem_ctrls.perBankRdBursts::13            15438                       # Per bank write bursts
system.mem_ctrls.perBankRdBursts::14            13875                       # Per bank write bursts
system.mem_ctrls.perBankRdBursts::15            14925                       # Per bank write bursts
system.mem_ctrls.perBankWrBursts::0              5869                       # Per bank write bursts
system.mem_ctrls.perBankWrBursts::1              5940                       # Per bank write bursts
system.mem_ctrls.perBankWrBursts::2              5935                       # Per bank write bursts
system.mem_ctrls.perBankWrBursts::3              6519                       # Per bank write bursts
system.mem_ctrls.perBankWrBursts::4              6644                       # Per bank write bursts
system.mem_ctrls.perBankWrBursts::5              6503                       # Per bank write bursts
system.mem_ctrls.perBankWrBursts::6              7144                       # Per bank write bursts
system.mem_ctrls.perBankWrBursts::7              6848                       # Per bank write bursts
system.mem_ctrls.perBankWrBursts::8              7050                       # Per bank write bursts
system.mem_ctrls.perBankWrBursts::9              7548                       # Per bank write bursts
system.mem_ctrls.perBankWrBursts::10             5972                       # Per bank write bursts
system.mem_ctrls.perBankWrBursts::11             5889                       # Per bank write bursts
system.mem_ctrls.perBankWrBursts::12             6547                       # Per bank write bursts
system.mem_ctrls.perBankWrBursts::13             6890                       # Per bank write bursts
system.mem_ctrls.perBankWrBursts::14             5826                       # Per bank write bursts
system.mem_ctrls.perBankWrBursts::15             6202                       # Per bank write bursts
system.mem_ctrls.numRdRetry                         0                       # Number of times read queue was full causing retry
system.mem_ctrls.numWrRetry                         3                       # Number of times write queue was full causing retry
system.mem_ctrls.totGap                   41411695500                       # Total gap between requests
system.mem_ctrls.readPktSize::0                     0                       # Read request sizes (log2)
system.mem_ctrls.readPktSize::1                     0                       # Read request sizes (log2)
system.mem_ctrls.readPktSize::2                     0                       # Read request sizes (log2)
system.mem_ctrls.readPktSize::3                     0                       # Read request sizes (log2)
system.mem_ctrls.readPktSize::4                     0                       # Read request sizes (log2)
system.mem_ctrls.readPktSize::5                     0                       # Read request sizes (log2)
system.mem_ctrls.readPktSize::6                265412                       # Read request sizes (log2)
system.mem_ctrls.writePktSize::0                    0                       # Write request sizes (log2)
system.mem_ctrls.writePktSize::1                    0                       # Write request sizes (log2)
system.mem_ctrls.writePktSize::2                    0                       # Write request sizes (log2)
system.mem_ctrls.writePktSize::3                    0                       # Write request sizes (log2)
system.mem_ctrls.writePktSize::4                    0                       # Write request sizes (log2)
system.mem_ctrls.writePktSize::5                    0                       # Write request sizes (log2)
system.mem_ctrls.writePktSize::6               103352                       # Write request sizes (log2)
system.mem_ctrls.rdQLenPdf::0                   43181                       # What read queue length does an incoming req see
system.mem_ctrls.rdQLenPdf::1                   31894                       # What read queue length does an incoming req see
system.mem_ctrls.rdQLenPdf::2                   24276                       # What read queue length does an incoming req see
system.mem_ctrls.rdQLenPdf::3                   20744                       # What read queue length does an incoming req see
system.mem_ctrls.rdQLenPdf::4                   20041                       # What read queue length does an incoming req see
system.mem_ctrls.rdQLenPdf::5                   20337                       # What read queue length does an incoming req see
system.mem_ctrls.rdQLenPdf::6                   18983                       # What read queue length does an incoming req see
system.mem_ctrls.rdQLenPdf::7                   17919                       # What read queue length does an incoming req see
system.mem_ctrls.rdQLenPdf::8                   16380                       # What read queue length does an incoming req see
system.mem_ctrls.rdQLenPdf::9                   13957                       # What read queue length does an incoming req see
system.mem_ctrls.rdQLenPdf::10                  10918                       # What read queue length does an incoming req see
system.mem_ctrls.rdQLenPdf::11                   9390                       # What read queue length does an incoming req see
system.mem_ctrls.rdQLenPdf::12                   6159                       # What read queue length does an incoming req see
system.mem_ctrls.rdQLenPdf::13                   4424                       # What read queue length does an incoming req see
system.mem_ctrls.rdQLenPdf::14                   3718                       # What read queue length does an incoming req see
system.mem_ctrls.rdQLenPdf::15                   3013                       # What read queue length does an incoming req see
system.mem_ctrls.rdQLenPdf::16                      0                       # What read queue length does an incoming req see
system.mem_ctrls.rdQLenPdf::17                      0                       # What read queue length does an incoming req see
system.mem_ctrls.rdQLenPdf::18                      0                       # What read queue length does an incoming req see
system.mem_ctrls.rdQLenPdf::19                      0                       # What read queue length does an incoming req see
system.mem_ctrls.rdQLenPdf::20                      0                       # What read queue length does an incoming req see
system.mem_ctrls.rdQLenPdf::21                      0                       # What read queue length does an incoming req see
system.mem_ctrls.rdQLenPdf::22                      0                       # What read queue length does an incoming req see
system.mem_ctrls.rdQLenPdf::23                      0                       # What read queue length does an incoming req see
system.mem_ctrls.rdQLenPdf::24                      0                       # What read queue length does an incoming req see
system.mem_ctrls.rdQLenPdf::25                      0                       # What read queue length does an incoming req see
system.mem_ctrls.rdQLenPdf::26                      0                       # What read queue length does an incoming req see
system.mem_ctrls.rdQLenPdf::27                      0                       # What read queue length does an incoming req see
system.mem_ctrls.rdQLenPdf::28                      0                       # What read queue length does an incoming req see
system.mem_ctrls.rdQLenPdf::29                      0                       # What read queue length does an incoming req see
system.mem_ctrls.rdQLenPdf::30                      0                       # What read queue length does an incoming req see
system.mem_ctrls.rdQLenPdf::31                      0                       # What read queue length does an incoming req see
system.mem_ctrls.wrQLenPdf::0                       1                       # What write queue length does an incoming req see
system.mem_ctrls.wrQLenPdf::1                       1                       # What write queue length does an incoming req see
system.mem_ctrls.wrQLenPdf::2                       1                       # What write queue length does an incoming req see
system.mem_ctrls.wrQLenPdf::3                       1                       # What write queue length does an incoming req see
system.mem_ctrls.wrQLenPdf::4                       1                       # What write queue length does an incoming req see
system.mem_ctrls.wrQLenPdf::5                       1                       # What write queue length does an incoming req see
system.mem_ctrls.wrQLenPdf::6                       1                       # What write queue length does an incoming req see
system.mem_ctrls.wrQLenPdf::7                       1                       # What write queue length does an incoming req see
system.mem_ctrls.wrQLenPdf::8                       1                       # What write queue length does an incoming req see
system.mem_ctrls.wrQLenPdf::9                       1                       # What write queue length does an incoming req see
system.mem_ctrls.wrQLenPdf::10                      1                       # What write queue length does an incoming req see
system.mem_ctrls.wrQLenPdf::11                      1                       # What write queue length does an incoming req see
system.mem_ctrls.wrQLenPdf::12                      1                       # What write queue length does an incoming req see
system.mem_ctrls.wrQLenPdf::13                      1                       # What write queue length does an incoming req see
system.mem_ctrls.wrQLenPdf::14                      1                       # What write queue length does an incoming req see
system.mem_ctrls.wrQLenPdf::15                    672                       # What write queue length does an incoming req see
system.mem_ctrls.wrQLenPdf::16                    711                       # What write queue length does an incoming req see
system.mem_ctrls.wrQLenPdf::17                   1523                       # What write queue length does an incoming req see
system.mem_ctrls.wrQLenPdf::18                   2310                       # What write queue length does an incoming req see
system.mem_ctrls.wrQLenPdf::19                   2978                       # What write queue length does an incoming req see
system.mem_ctrls.wrQLenPdf::20                   3612                       # What write queue length does an incoming req see
system.mem_ctrls.wrQLenPdf::21                   4163                       # What write queue length does an incoming req see
system.mem_ctrls.wrQLenPdf::22                   4813                       # What write queue length does an incoming req see
system.mem_ctrls.wrQLenPdf::23                   5343                       # What write queue length does an incoming req see
system.mem_ctrls.wrQLenPdf::24                   5872                       # What write queue length does an incoming req see
system.mem_ctrls.wrQLenPdf::25                   6298                       # What write queue length does an incoming req see
system.mem_ctrls.wrQLenPdf::26                   6657                       # What write queue length does an incoming req see
system.mem_ctrls.wrQLenPdf::27                   6949                       # What write queue length does an incoming req see
system.mem_ctrls.wrQLenPdf::28                   7317                       # What write queue length does an incoming req see
system.mem_ctrls.wrQLenPdf::29                   6948                       # What write queue length does an incoming req see
system.mem_ctrls.wrQLenPdf::30                   6737                       # What write queue length does an incoming req see
system.mem_ctrls.wrQLenPdf::31                   6541                       # What write queue length does an incoming req see
system.mem_ctrls.wrQLenPdf::32                   6151                       # What write queue length does an incoming req see
system.mem_ctrls.wrQLenPdf::33                   1289                       # What write queue length does an incoming req see
system.mem_ctrls.wrQLenPdf::34                   1000                       # What write queue length does an incoming req see
system.mem_ctrls.wrQLenPdf::35                    808                       # What write queue length does an incoming req see
system.mem_ctrls.wrQLenPdf::36                    685                       # What write queue length does an incoming req see
system.mem_ctrls.wrQLenPdf::37                    639                       # What write queue length does an incoming req see
system.mem_ctrls.wrQLenPdf::38                    580                       # What write queue length does an incoming req see
system.mem_ctrls.wrQLenPdf::39                    580                       # What write queue length does an incoming req see
system.mem_ctrls.wrQLenPdf::40                    575                       # What write queue length does an incoming req see
system.mem_ctrls.wrQLenPdf::41                    565                       # What write queue length does an incoming req see
system.mem_ctrls.wrQLenPdf::42                    615                       # What write queue length does an incoming req see
system.mem_ctrls.wrQLenPdf::43                    626                       # What write queue length does an incoming req see
system.mem_ctrls.wrQLenPdf::44                    703                       # What write queue length does an incoming req see
system.mem_ctrls.wrQLenPdf::45                    757                       # What write queue length does an incoming req see
system.mem_ctrls.wrQLenPdf::46                    811                       # What write queue length does an incoming req see
system.mem_ctrls.wrQLenPdf::47                    877                       # What write queue length does an incoming req see
system.mem_ctrls.wrQLenPdf::48                    922                       # What write queue length does an incoming req see
system.mem_ctrls.wrQLenPdf::49                   1000                       # What write queue length does an incoming req see
system.mem_ctrls.wrQLenPdf::50                   1004                       # What write queue length does an incoming req see
system.mem_ctrls.wrQLenPdf::51                    924                       # What write queue length does an incoming req see
system.mem_ctrls.wrQLenPdf::52                    851                       # What write queue length does an incoming req see
system.mem_ctrls.wrQLenPdf::53                    754                       # What write queue length does an incoming req see
system.mem_ctrls.wrQLenPdf::54                    719                       # What write queue length does an incoming req see
system.mem_ctrls.wrQLenPdf::55                    230                       # What write queue length does an incoming req see
system.mem_ctrls.wrQLenPdf::56                    101                       # What write queue length does an incoming req see
system.mem_ctrls.wrQLenPdf::57                     52                       # What write queue length does an incoming req see
system.mem_ctrls.wrQLenPdf::58                     23                       # What write queue length does an incoming req see
system.mem_ctrls.wrQLenPdf::59                     19                       # What write queue length does an incoming req see
system.mem_ctrls.wrQLenPdf::60                     10                       # What write queue length does an incoming req see
system.mem_ctrls.wrQLenPdf::61                      9                       # What write queue length does an incoming req see
system.mem_ctrls.wrQLenPdf::62                      7                       # What write queue length does an incoming req see
system.mem_ctrls.wrQLenPdf::63                      7                       # What write queue length does an incoming req see
system.mem_ctrls.bytesPerActivate::samples       173054                       # Bytes accessed per row activation
system.mem_ctrls.bytesPerActivate::mean    136.334416                       # Bytes accessed per row activation
system.mem_ctrls.bytesPerActivate::gmean    96.241241                       # Bytes accessed per row activation
system.mem_ctrls.bytesPerActivate::stdev   167.537953                       # Bytes accessed per row activation
system.mem_ctrls.bytesPerActivate::0-127       118894     68.70%     68.70% # Bytes accessed per row activation
system.mem_ctrls.bytesPerActivate::128-255        29523     17.06%     85.76% # Bytes accessed per row activation
system.mem_ctrls.bytesPerActivate::256-383        12160      7.03%     92.79% # Bytes accessed per row activation
system.mem_ctrls.bytesPerActivate::384-511         3407      1.97%     94.76% # Bytes accessed per row activation
system.mem_ctrls.bytesPerActivate::512-639         2990      1.73%     96.49% # Bytes accessed per row activation
system.mem_ctrls.bytesPerActivate::640-767         2094      1.21%     97.70% # Bytes accessed per row activation
system.mem_ctrls.bytesPerActivate::768-895         1301      0.75%     98.45% # Bytes accessed per row activation
system.mem_ctrls.bytesPerActivate::896-1023          778      0.45%     98.90% # Bytes accessed per row activation
system.mem_ctrls.bytesPerActivate::1024-1151         1907      1.10%    100.00% # Bytes accessed per row activation
system.mem_ctrls.bytesPerActivate::total       173054                       # Bytes accessed per row activation
system.mem_ctrls.rdPerTurnAround::samples         6318                       # Reads before turning the bus around for writes
system.mem_ctrls.rdPerTurnAround::mean      41.991453                       # Reads before turning the bus around for writes
system.mem_ctrls.rdPerTurnAround::gmean     34.605483                       # Reads before turning the bus around for writes
system.mem_ctrls.rdPerTurnAround::stdev    237.947171                       # Reads before turning the bus around for writes
system.mem_ctrls.rdPerTurnAround::0-1023         6317     99.98%     99.98% # Reads before turning the bus around for writes
system.mem_ctrls.rdPerTurnAround::18432-19455            1      0.02%    100.00% # Reads before turning the bus around for writes
system.mem_ctrls.rdPerTurnAround::total          6318                       # Reads before turning the bus around for writes
system.mem_ctrls.wrPerTurnAround::samples         6318                       # Writes before turning the bus around for reads
system.mem_ctrls.wrPerTurnAround::mean      16.354226                       # Writes before turning the bus around for reads
system.mem_ctrls.wrPerTurnAround::gmean     16.321673                       # Writes before turning the bus around for reads
system.mem_ctrls.wrPerTurnAround::stdev      1.187719                       # Writes before turning the bus around for reads
system.mem_ctrls.wrPerTurnAround::16             5497     87.01%     87.01% # Writes before turning the bus around for reads
system.mem_ctrls.wrPerTurnAround::17               67      1.06%     88.07% # Writes before turning the bus around for reads
system.mem_ctrls.wrPerTurnAround::18              456      7.22%     95.28% # Writes before turning the bus around for reads
system.mem_ctrls.wrPerTurnAround::19              154      2.44%     97.72% # Writes before turning the bus around for reads
system.mem_ctrls.wrPerTurnAround::20               67      1.06%     98.78% # Writes before turning the bus around for reads
system.mem_ctrls.wrPerTurnAround::21               34      0.54%     99.32% # Writes before turning the bus around for reads
system.mem_ctrls.wrPerTurnAround::22               16      0.25%     99.57% # Writes before turning the bus around for reads
system.mem_ctrls.wrPerTurnAround::23               12      0.19%     99.76% # Writes before turning the bus around for reads
system.mem_ctrls.wrPerTurnAround::24                3      0.05%     99.81% # Writes before turning the bus around for reads
system.mem_ctrls.wrPerTurnAround::25                7      0.11%     99.92% # Writes before turning the bus around for reads
system.mem_ctrls.wrPerTurnAround::26                1      0.02%     99.94% # Writes before turning the bus around for reads
system.mem_ctrls.wrPerTurnAround::28                2      0.03%     99.97% # Writes before turning the bus around for reads
system.mem_ctrls.wrPerTurnAround::29                1      0.02%     99.98% # Writes before turning the bus around for reads
system.mem_ctrls.wrPerTurnAround::61                1      0.02%    100.00% # Writes before turning the bus around for reads
system.mem_ctrls.wrPerTurnAround::total          6318                       # Writes before turning the bus around for reads
system.mem_ctrls.totQLat                  15317335382                       # Total ticks spent queuing
system.mem_ctrls.totMemAccLat             20292347882                       # Total ticks spent from burst creation until serviced by the DRAM
system.mem_ctrls.totBusLat                 1326670000                       # Total ticks spent in databus transfers
system.mem_ctrls.avgQLat                     57728.51                       # Average queueing delay per DRAM burst
system.mem_ctrls.avgBusLat                    5000.00                       # Average bus latency per DRAM burst
system.mem_ctrls.avgMemAccLat                76478.51                       # Average memory access latency per DRAM burst
system.mem_ctrls.avgRdBW                       410.06                       # Average DRAM read bandwidth in MiByte/s
system.mem_ctrls.avgWrBW                       159.69                       # Average achieved write bandwidth in MiByte/s
system.mem_ctrls.avgRdBWSys                    410.18                       # Average system read bandwidth in MiByte/s
system.mem_ctrls.avgWrBWSys                    159.73                       # Average system write bandwidth in MiByte/s
system.mem_ctrls.peakBW                      12800.00                       # Theoretical peak bandwidth in MiByte/s
system.mem_ctrls.busUtil                         4.45                       # Data bus utilization in percentage
system.mem_ctrls.busUtilRead                     3.20                       # Data bus utilization in percentage for reads
system.mem_ctrls.busUtilWrite                    1.25                       # Data bus utilization in percentage for writes
system.mem_ctrls.avgRdQLen                       2.19                       # Average read queue length when enqueuing
system.mem_ctrls.avgWrQLen                      24.76                       # Average write queue length when enqueuing
system.mem_ctrls.readRowHits                   185536                       # Number of row buffer hits during reads
system.mem_ctrls.writeRowHits                   10062                       # Number of row buffer hits during writes
system.mem_ctrls.readRowHitRate                 69.93                       # Row buffer hit rate for reads
system.mem_ctrls.writeRowHitRate                 9.74                       # Row buffer hit rate for writes
system.mem_ctrls.avgGap                     112298.64                       # Average gap between requests
system.mem_ctrls.pageHitRate                    53.05                       # Row buffer hit rate, read and write combined
system.mem_ctrls.memoryStateTime::IDLE    16752963764                       # Time in different power states
system.mem_ctrls.memoryStateTime::REF      1382680000                       # Time in different power states
system.mem_ctrls.memoryStateTime::PRE_PDN            0                       # Time in different power states
system.mem_ctrls.memoryStateTime::ACT     23272271736                       # Time in different power states
system.mem_ctrls.memoryStateTime::ACT_PDN            0                       # Time in different power states
system.mem_ctrls.actEnergy::0               665665560                       # Energy for activate commands per rank (pJ)
system.mem_ctrls.actEnergy::1               642562200                       # Energy for activate commands per rank (pJ)
system.mem_ctrls.preEnergy::0               363210375                       # Energy for precharge commands per rank (pJ)
system.mem_ctrls.preEnergy::1               350604375                       # Energy for precharge commands per rank (pJ)
system.mem_ctrls.readEnergy::0             1059294600                       # Energy for read commands per rank (pJ)
system.mem_ctrls.readEnergy::1             1010100000                       # Energy for read commands per rank (pJ)
system.mem_ctrls.writeEnergy::0             333084960                       # Energy for write commands per rank (pJ)
system.mem_ctrls.writeEnergy::1             336467520                       # Energy for write commands per rank (pJ)
system.mem_ctrls.refreshEnergy::0          2704522080                       # Energy for refresh commands per rank (pJ)
system.mem_ctrls.refreshEnergy::1          2704522080                       # Energy for refresh commands per rank (pJ)
system.mem_ctrls.actBackEnergy::0         12913217190                       # Energy for active background per rank (pJ)
system.mem_ctrls.actBackEnergy::1         12756276810                       # Energy for active background per rank (pJ)
system.mem_ctrls.preBackEnergy::0         13517139000                       # Energy for precharge background per rank (pJ)
system.mem_ctrls.preBackEnergy::1         13654806000                       # Energy for precharge background per rank (pJ)
system.mem_ctrls.totalEnergy::0           31556133765                       # Total energy per rank (pJ)
system.mem_ctrls.totalEnergy::1           31455338985                       # Total energy per rank (pJ)
system.mem_ctrls.averagePower::0           762.086704                       # Core power per rank (mW)
system.mem_ctrls.averagePower::1           759.652490                       # Core power per rank (mW)
system.cpu_voltage_domain.voltage                   1                       # Voltage in Volts
system.cpu_clk_domain.clock                       500                       # Clock period in ticks
system.tol2bus.trans_dist::ReadReq             460112                       # Transaction distribution
system.tol2bus.trans_dist::ReadResp            460111                       # Transaction distribution
system.tol2bus.trans_dist::WriteReq               226                       # Transaction distribution
system.tol2bus.trans_dist::WriteResp              226                       # Transaction distribution
system.tol2bus.trans_dist::Writeback           144265                       # Transaction distribution
system.tol2bus.trans_dist::HardPFReq           297874                       # Transaction distribution
system.tol2bus.trans_dist::HardPFResp               6                       # Transaction distribution
system.tol2bus.trans_dist::UpgradeReq           12065                       # Transaction distribution
system.tol2bus.trans_dist::SCUpgradeReq          5065                       # Transaction distribution
system.tol2bus.trans_dist::UpgradeResp          17130                       # Transaction distribution
system.tol2bus.trans_dist::SCUpgradeFailReq           39                       # Transaction distribution
system.tol2bus.trans_dist::UpgradeFailResp           39                       # Transaction distribution
system.tol2bus.trans_dist::ReadExReq           126533                       # Transaction distribution
system.tol2bus.trans_dist::ReadExResp          126533                       # Transaction distribution
system.tol2bus.pkt_count_system.cpu0.icache.mem_side::system.l2.cpu_side        42848                       # Packet count per connected master and slave (bytes)
system.tol2bus.pkt_count_system.cpu0.dcache.mem_side::system.l2.cpu_side        80429                       # Packet count per connected master and slave (bytes)
system.tol2bus.pkt_count_system.cpu0.itb.walker.dma::system.l2.cpu_side         3061                       # Packet count per connected master and slave (bytes)
system.tol2bus.pkt_count_system.cpu0.dtb.walker.dma::system.l2.cpu_side        30030                       # Packet count per connected master and slave (bytes)
system.tol2bus.pkt_count_system.cpu1.icache.mem_side::system.l2.cpu_side         6765                       # Packet count per connected master and slave (bytes)
system.tol2bus.pkt_count_system.cpu1.dcache.mem_side::system.l2.cpu_side       112376                       # Packet count per connected master and slave (bytes)
system.tol2bus.pkt_count_system.cpu1.itb.walker.dma::system.l2.cpu_side         1089                       # Packet count per connected master and slave (bytes)
system.tol2bus.pkt_count_system.cpu1.dtb.walker.dma::system.l2.cpu_side        45145                       # Packet count per connected master and slave (bytes)
system.tol2bus.pkt_count_system.cpu2.icache.mem_side::system.l2.cpu_side         6078                       # Packet count per connected master and slave (bytes)
system.tol2bus.pkt_count_system.cpu2.dcache.mem_side::system.l2.cpu_side        62392                       # Packet count per connected master and slave (bytes)
system.tol2bus.pkt_count_system.cpu2.itb.walker.dma::system.l2.cpu_side          898                       # Packet count per connected master and slave (bytes)
system.tol2bus.pkt_count_system.cpu2.dtb.walker.dma::system.l2.cpu_side        28726                       # Packet count per connected master and slave (bytes)
system.tol2bus.pkt_count_system.cpu3.icache.mem_side::system.l2.cpu_side        18888                       # Packet count per connected master and slave (bytes)
system.tol2bus.pkt_count_system.cpu3.dcache.mem_side::system.l2.cpu_side        78703                       # Packet count per connected master and slave (bytes)
system.tol2bus.pkt_count_system.cpu3.itb.walker.dma::system.l2.cpu_side         1645                       # Packet count per connected master and slave (bytes)
system.tol2bus.pkt_count_system.cpu3.dtb.walker.dma::system.l2.cpu_side        35892                       # Packet count per connected master and slave (bytes)
system.tol2bus.pkt_count_system.cpu4.icache.mem_side::system.l2.cpu_side        17308                       # Packet count per connected master and slave (bytes)
system.tol2bus.pkt_count_system.cpu4.dcache.mem_side::system.l2.cpu_side        69497                       # Packet count per connected master and slave (bytes)
system.tol2bus.pkt_count_system.cpu4.itb.walker.dma::system.l2.cpu_side         1498                       # Packet count per connected master and slave (bytes)
system.tol2bus.pkt_count_system.cpu4.dtb.walker.dma::system.l2.cpu_side        38327                       # Packet count per connected master and slave (bytes)
system.tol2bus.pkt_count_system.cpu5.icache.mem_side::system.l2.cpu_side       193924                       # Packet count per connected master and slave (bytes)
system.tol2bus.pkt_count_system.cpu5.dcache.mem_side::system.l2.cpu_side       160552                       # Packet count per connected master and slave (bytes)
system.tol2bus.pkt_count_system.cpu5.itb.walker.dma::system.l2.cpu_side         6555                       # Packet count per connected master and slave (bytes)
system.tol2bus.pkt_count_system.cpu5.dtb.walker.dma::system.l2.cpu_side        25674                       # Packet count per connected master and slave (bytes)
system.tol2bus.pkt_count_system.cpu6.icache.mem_side::system.l2.cpu_side         7910                       # Packet count per connected master and slave (bytes)
system.tol2bus.pkt_count_system.cpu6.dcache.mem_side::system.l2.cpu_side        66346                       # Packet count per connected master and slave (bytes)
system.tol2bus.pkt_count_system.cpu6.itb.walker.dma::system.l2.cpu_side          867                       # Packet count per connected master and slave (bytes)
system.tol2bus.pkt_count_system.cpu6.dtb.walker.dma::system.l2.cpu_side        34086                       # Packet count per connected master and slave (bytes)
system.tol2bus.pkt_count_system.cpu7.icache.mem_side::system.l2.cpu_side         6534                       # Packet count per connected master and slave (bytes)
system.tol2bus.pkt_count_system.cpu7.dcache.mem_side::system.l2.cpu_side        73223                       # Packet count per connected master and slave (bytes)
system.tol2bus.pkt_count_system.cpu7.itb.walker.dma::system.l2.cpu_side          784                       # Packet count per connected master and slave (bytes)
system.tol2bus.pkt_count_system.cpu7.dtb.walker.dma::system.l2.cpu_side        36106                       # Packet count per connected master and slave (bytes)
system.tol2bus.pkt_count::total               1294156                       # Packet count per connected master and slave (bytes)
system.tol2bus.pkt_size_system.cpu0.icache.mem_side::system.l2.cpu_side      1371136                       # Cumulative packet size per connected master and slave (bytes)
system.tol2bus.pkt_size_system.cpu0.dcache.mem_side::system.l2.cpu_side      2838558                       # Cumulative packet size per connected master and slave (bytes)
system.tol2bus.pkt_size_system.cpu0.itb.walker.dma::system.l2.cpu_side         5648                       # Cumulative packet size per connected master and slave (bytes)
system.tol2bus.pkt_size_system.cpu0.dtb.walker.dma::system.l2.cpu_side        58700                       # Cumulative packet size per connected master and slave (bytes)
system.tol2bus.pkt_size_system.cpu1.icache.mem_side::system.l2.cpu_side       216448                       # Cumulative packet size per connected master and slave (bytes)
system.tol2bus.pkt_size_system.cpu1.dcache.mem_side::system.l2.cpu_side      4166172                       # Cumulative packet size per connected master and slave (bytes)
system.tol2bus.pkt_size_system.cpu1.itb.walker.dma::system.l2.cpu_side         2164                       # Cumulative packet size per connected master and slave (bytes)
system.tol2bus.pkt_size_system.cpu1.dtb.walker.dma::system.l2.cpu_side        90008                       # Cumulative packet size per connected master and slave (bytes)
system.tol2bus.pkt_size_system.cpu2.icache.mem_side::system.l2.cpu_side       194496                       # Cumulative packet size per connected master and slave (bytes)
system.tol2bus.pkt_size_system.cpu2.dcache.mem_side::system.l2.cpu_side      2296984                       # Cumulative packet size per connected master and slave (bytes)
system.tol2bus.pkt_size_system.cpu2.itb.walker.dma::system.l2.cpu_side         1784                       # Cumulative packet size per connected master and slave (bytes)
system.tol2bus.pkt_size_system.cpu2.dtb.walker.dma::system.l2.cpu_side        57192                       # Cumulative packet size per connected master and slave (bytes)
system.tol2bus.pkt_size_system.cpu3.icache.mem_side::system.l2.cpu_side       604416                       # Cumulative packet size per connected master and slave (bytes)
system.tol2bus.pkt_size_system.cpu3.dcache.mem_side::system.l2.cpu_side      2881188                       # Cumulative packet size per connected master and slave (bytes)
system.tol2bus.pkt_size_system.cpu3.itb.walker.dma::system.l2.cpu_side         3268                       # Cumulative packet size per connected master and slave (bytes)
system.tol2bus.pkt_size_system.cpu3.dtb.walker.dma::system.l2.cpu_side        71424                       # Cumulative packet size per connected master and slave (bytes)
system.tol2bus.pkt_size_system.cpu4.icache.mem_side::system.l2.cpu_side       553856                       # Cumulative packet size per connected master and slave (bytes)
system.tol2bus.pkt_size_system.cpu4.dcache.mem_side::system.l2.cpu_side      2470444                       # Cumulative packet size per connected master and slave (bytes)
system.tol2bus.pkt_size_system.cpu4.itb.walker.dma::system.l2.cpu_side         2240                       # Cumulative packet size per connected master and slave (bytes)
system.tol2bus.pkt_size_system.cpu4.dtb.walker.dma::system.l2.cpu_side        74880                       # Cumulative packet size per connected master and slave (bytes)
system.tol2bus.pkt_size_system.cpu5.icache.mem_side::system.l2.cpu_side      6205568                       # Cumulative packet size per connected master and slave (bytes)
system.tol2bus.pkt_size_system.cpu5.dcache.mem_side::system.l2.cpu_side      6003428                       # Cumulative packet size per connected master and slave (bytes)
system.tol2bus.pkt_size_system.cpu5.itb.walker.dma::system.l2.cpu_side         9376                       # Cumulative packet size per connected master and slave (bytes)
system.tol2bus.pkt_size_system.cpu5.dtb.walker.dma::system.l2.cpu_side        39572                       # Cumulative packet size per connected master and slave (bytes)
system.tol2bus.pkt_size_system.cpu6.icache.mem_side::system.l2.cpu_side       253120                       # Cumulative packet size per connected master and slave (bytes)
system.tol2bus.pkt_size_system.cpu6.dcache.mem_side::system.l2.cpu_side      2253232                       # Cumulative packet size per connected master and slave (bytes)
system.tol2bus.pkt_size_system.cpu6.itb.walker.dma::system.l2.cpu_side         1724                       # Cumulative packet size per connected master and slave (bytes)
system.tol2bus.pkt_size_system.cpu6.dtb.walker.dma::system.l2.cpu_side        67968                       # Cumulative packet size per connected master and slave (bytes)
system.tol2bus.pkt_size_system.cpu7.icache.mem_side::system.l2.cpu_side       209088                       # Cumulative packet size per connected master and slave (bytes)
system.tol2bus.pkt_size_system.cpu7.dcache.mem_side::system.l2.cpu_side      2530472                       # Cumulative packet size per connected master and slave (bytes)
system.tol2bus.pkt_size_system.cpu7.itb.walker.dma::system.l2.cpu_side         1560                       # Cumulative packet size per connected master and slave (bytes)
system.tol2bus.pkt_size_system.cpu7.dtb.walker.dma::system.l2.cpu_side        71984                       # Cumulative packet size per connected master and slave (bytes)
system.tol2bus.pkt_size::total               35608098                       # Cumulative packet size per connected master and slave (bytes)
system.tol2bus.snoops                          356074                       # Total snoops (count)
system.tol2bus.snoop_fanout::samples          1118099                       # Request fanout histogram
system.tol2bus.snoop_fanout::mean           47.266411                       # Request fanout histogram
system.tol2bus.snoop_fanout::stdev           0.442082                       # Request fanout histogram
system.tol2bus.snoop_fanout::underflows             0      0.00%      0.00% # Request fanout histogram
system.tol2bus.snoop_fanout::0                      0      0.00%      0.00% # Request fanout histogram
system.tol2bus.snoop_fanout::1                      0      0.00%      0.00% # Request fanout histogram
system.tol2bus.snoop_fanout::2                      0      0.00%      0.00% # Request fanout histogram
system.tol2bus.snoop_fanout::3                      0      0.00%      0.00% # Request fanout histogram
system.tol2bus.snoop_fanout::4                      0      0.00%      0.00% # Request fanout histogram
system.tol2bus.snoop_fanout::5                      0      0.00%      0.00% # Request fanout histogram
system.tol2bus.snoop_fanout::6                      0      0.00%      0.00% # Request fanout histogram
system.tol2bus.snoop_fanout::7                      0      0.00%      0.00% # Request fanout histogram
system.tol2bus.snoop_fanout::8                      0      0.00%      0.00% # Request fanout histogram
system.tol2bus.snoop_fanout::9                      0      0.00%      0.00% # Request fanout histogram
system.tol2bus.snoop_fanout::10                     0      0.00%      0.00% # Request fanout histogram
system.tol2bus.snoop_fanout::11                     0      0.00%      0.00% # Request fanout histogram
system.tol2bus.snoop_fanout::12                     0      0.00%      0.00% # Request fanout histogram
system.tol2bus.snoop_fanout::13                     0      0.00%      0.00% # Request fanout histogram
system.tol2bus.snoop_fanout::14                     0      0.00%      0.00% # Request fanout histogram
system.tol2bus.snoop_fanout::15                     0      0.00%      0.00% # Request fanout histogram
system.tol2bus.snoop_fanout::16                     0      0.00%      0.00% # Request fanout histogram
system.tol2bus.snoop_fanout::17                     0      0.00%      0.00% # Request fanout histogram
system.tol2bus.snoop_fanout::18                     0      0.00%      0.00% # Request fanout histogram
system.tol2bus.snoop_fanout::19                     0      0.00%      0.00% # Request fanout histogram
system.tol2bus.snoop_fanout::20                     0      0.00%      0.00% # Request fanout histogram
system.tol2bus.snoop_fanout::21                     0      0.00%      0.00% # Request fanout histogram
system.tol2bus.snoop_fanout::22                     0      0.00%      0.00% # Request fanout histogram
system.tol2bus.snoop_fanout::23                     0      0.00%      0.00% # Request fanout histogram
system.tol2bus.snoop_fanout::24                     0      0.00%      0.00% # Request fanout histogram
system.tol2bus.snoop_fanout::25                     0      0.00%      0.00% # Request fanout histogram
system.tol2bus.snoop_fanout::26                     0      0.00%      0.00% # Request fanout histogram
system.tol2bus.snoop_fanout::27                     0      0.00%      0.00% # Request fanout histogram
system.tol2bus.snoop_fanout::28                     0      0.00%      0.00% # Request fanout histogram
system.tol2bus.snoop_fanout::29                     0      0.00%      0.00% # Request fanout histogram
system.tol2bus.snoop_fanout::30                     0      0.00%      0.00% # Request fanout histogram
system.tol2bus.snoop_fanout::31                     0      0.00%      0.00% # Request fanout histogram
system.tol2bus.snoop_fanout::32                     0      0.00%      0.00% # Request fanout histogram
system.tol2bus.snoop_fanout::33                     0      0.00%      0.00% # Request fanout histogram
system.tol2bus.snoop_fanout::34                     0      0.00%      0.00% # Request fanout histogram
system.tol2bus.snoop_fanout::35                     0      0.00%      0.00% # Request fanout histogram
system.tol2bus.snoop_fanout::36                     0      0.00%      0.00% # Request fanout histogram
system.tol2bus.snoop_fanout::37                     0      0.00%      0.00% # Request fanout histogram
system.tol2bus.snoop_fanout::38                     0      0.00%      0.00% # Request fanout histogram
system.tol2bus.snoop_fanout::39                     0      0.00%      0.00% # Request fanout histogram
system.tol2bus.snoop_fanout::40                     0      0.00%      0.00% # Request fanout histogram
system.tol2bus.snoop_fanout::41                     0      0.00%      0.00% # Request fanout histogram
system.tol2bus.snoop_fanout::42                     0      0.00%      0.00% # Request fanout histogram
system.tol2bus.snoop_fanout::43                     0      0.00%      0.00% # Request fanout histogram
system.tol2bus.snoop_fanout::44                     0      0.00%      0.00% # Request fanout histogram
system.tol2bus.snoop_fanout::45                     0      0.00%      0.00% # Request fanout histogram
system.tol2bus.snoop_fanout::46                     0      0.00%      0.00% # Request fanout histogram
system.tol2bus.snoop_fanout::47                820225     73.36%     73.36% # Request fanout histogram
system.tol2bus.snoop_fanout::48                297874     26.64%    100.00% # Request fanout histogram
system.tol2bus.snoop_fanout::overflows              0      0.00%    100.00% # Request fanout histogram
system.tol2bus.snoop_fanout::min_value             47                       # Request fanout histogram
system.tol2bus.snoop_fanout::max_value             48                       # Request fanout histogram
system.tol2bus.snoop_fanout::total            1118099                       # Request fanout histogram
system.tol2bus.reqLayer0.occupancy          595845604                       # Layer occupancy (ticks)
system.tol2bus.reqLayer0.utilization              1.4                       # Layer utilization (%)
system.tol2bus.snoopLayer0.occupancy             9499                       # Layer occupancy (ticks)
system.tol2bus.snoopLayer0.utilization            0.0                       # Layer utilization (%)
system.tol2bus.respLayer0.occupancy          32327064                       # Layer occupancy (ticks)
system.tol2bus.respLayer0.utilization             0.1                       # Layer utilization (%)
system.tol2bus.respLayer1.occupancy          51336544                       # Layer occupancy (ticks)
system.tol2bus.respLayer1.utilization             0.1                       # Layer utilization (%)
system.tol2bus.respLayer2.occupancy           1660230                       # Layer occupancy (ticks)
system.tol2bus.respLayer2.utilization             0.0                       # Layer utilization (%)
system.tol2bus.respLayer3.occupancy          15515693                       # Layer occupancy (ticks)
system.tol2bus.respLayer3.utilization             0.0                       # Layer utilization (%)
system.tol2bus.respLayer6.occupancy           5132349                       # Layer occupancy (ticks)
system.tol2bus.respLayer6.utilization             0.0                       # Layer utilization (%)
system.tol2bus.respLayer7.occupancy          69474855                       # Layer occupancy (ticks)
system.tol2bus.respLayer7.utilization             0.2                       # Layer utilization (%)
system.tol2bus.respLayer8.occupancy            553238                       # Layer occupancy (ticks)
system.tol2bus.respLayer8.utilization             0.0                       # Layer utilization (%)
system.tol2bus.respLayer9.occupancy          22894799                       # Layer occupancy (ticks)
system.tol2bus.respLayer9.utilization             0.1                       # Layer utilization (%)
system.tol2bus.respLayer12.occupancy          4623096                       # Layer occupancy (ticks)
system.tol2bus.respLayer12.utilization            0.0                       # Layer utilization (%)
system.tol2bus.respLayer13.occupancy         39289540                       # Layer occupancy (ticks)
system.tol2bus.respLayer13.utilization            0.1                       # Layer utilization (%)
system.tol2bus.respLayer14.occupancy           456743                       # Layer occupancy (ticks)
system.tol2bus.respLayer14.utilization            0.0                       # Layer utilization (%)
system.tol2bus.respLayer15.occupancy         14593671                       # Layer occupancy (ticks)
system.tol2bus.respLayer15.utilization            0.0                       # Layer utilization (%)
system.tol2bus.respLayer18.occupancy         14325269                       # Layer occupancy (ticks)
system.tol2bus.respLayer18.utilization            0.0                       # Layer utilization (%)
system.tol2bus.respLayer19.occupancy         49545582                       # Layer occupancy (ticks)
system.tol2bus.respLayer19.utilization            0.1                       # Layer utilization (%)
system.tol2bus.respLayer20.occupancy           834238                       # Layer occupancy (ticks)
system.tol2bus.respLayer20.utilization            0.0                       # Layer utilization (%)
system.tol2bus.respLayer21.occupancy         18226650                       # Layer occupancy (ticks)
system.tol2bus.respLayer21.utilization            0.0                       # Layer utilization (%)
system.tol2bus.respLayer24.occupancy         13119314                       # Layer occupancy (ticks)
system.tol2bus.respLayer24.utilization            0.0                       # Layer utilization (%)
system.tol2bus.respLayer25.occupancy         44683475                       # Layer occupancy (ticks)
system.tol2bus.respLayer25.utilization            0.1                       # Layer utilization (%)
system.tol2bus.respLayer26.occupancy           942237                       # Layer occupancy (ticks)
system.tol2bus.respLayer26.utilization            0.0                       # Layer utilization (%)
system.tol2bus.respLayer27.occupancy         19776190                       # Layer occupancy (ticks)
[...]
system.cpu7.dcache.demand_accesses::total      8529166                       # number of demand (read+write) accesses
system.cpu7.dcache.overall_accesses::switch_cpus7.data      8530295                       # number of overall (read+write) accesses
system.cpu7.dcache.overall_accesses::total      8530295                       # number of overall (read+write) accesses
system.cpu7.dcache.ReadReq_miss_rate::switch_cpus7.data     0.004005                       # miss rate for ReadReq accesses
system.cpu7.dcache.ReadReq_miss_rate::total     0.004005                       # miss rate for ReadReq accesses
system.cpu7.dcache.WriteReq_miss_rate::switch_cpus7.data     0.010778                       # miss rate for WriteReq accesses
system.cpu7.dcache.WriteReq_miss_rate::total     0.010778                       # miss rate for WriteReq accesses
system.cpu7.dcache.SoftPFReq_miss_rate::switch_cpus7.data     0.906997                       # miss rate for SoftPFReq accesses
system.cpu7.dcache.SoftPFReq_miss_rate::total     0.906997                       # miss rate for SoftPFReq accesses
system.cpu7.dcache.LoadLockedReq_miss_rate::switch_cpus7.data     0.009783                       # miss rate for LoadLockedReq accesses
system.cpu7.dcache.LoadLockedReq_miss_rate::total     0.009783                       # miss rate for LoadLockedReq accesses
system.cpu7.dcache.StoreCondReq_miss_rate::switch_cpus7.data     0.019608                       # miss rate for StoreCondReq accesses
system.cpu7.dcache.StoreCondReq_miss_rate::total     0.019608                       # miss rate for StoreCondReq accesses
system.cpu7.dcache.demand_miss_rate::switch_cpus7.data     0.006548                       # miss rate for demand accesses
system.cpu7.dcache.demand_miss_rate::total     0.006548                       # miss rate for demand accesses
system.cpu7.dcache.overall_miss_rate::switch_cpus7.data     0.006667                       # miss rate for overall accesses
system.cpu7.dcache.overall_miss_rate::total     0.006667                       # miss rate for overall accesses
system.cpu7.dcache.ReadReq_avg_miss_latency::switch_cpus7.data 55946.075142                       # average ReadReq miss latency
system.cpu7.dcache.ReadReq_avg_miss_latency::total 55946.075142                       # average ReadReq miss latency
system.cpu7.dcache.WriteReq_avg_miss_latency::switch_cpus7.data 115332.785561                       # average WriteReq miss latency
system.cpu7.dcache.WriteReq_avg_miss_latency::total 115332.785561                       # average WriteReq miss latency
system.cpu7.dcache.LoadLockedReq_avg_miss_latency::switch_cpus7.data 32782.490566                       # average LoadLockedReq miss latency
system.cpu7.dcache.LoadLockedReq_avg_miss_latency::total 32782.490566                       # average LoadLockedReq miss latency
system.cpu7.dcache.StoreCondReq_avg_miss_latency::switch_cpus7.data  6030.889005                       # average StoreCondReq miss latency
system.cpu7.dcache.StoreCondReq_avg_miss_latency::total  6030.889005                       # average StoreCondReq miss latency
system.cpu7.dcache.StoreCondFailReq_avg_miss_latency::switch_cpus7.data          inf                       # average StoreCondFailReq miss latency
system.cpu7.dcache.StoreCondFailReq_avg_miss_latency::total          inf                       # average StoreCondFailReq miss latency
system.cpu7.dcache.demand_avg_miss_latency::switch_cpus7.data 92649.275984                       # average overall miss latency
system.cpu7.dcache.demand_avg_miss_latency::total 92649.275984                       # average overall miss latency
system.cpu7.dcache.overall_avg_miss_latency::switch_cpus7.data 90981.181767                       # average overall miss latency
system.cpu7.dcache.overall_avg_miss_latency::total 90981.181767                       # average overall miss latency
system.cpu7.dcache.blocked_cycles::no_mshrs       308769                       # number of cycles access was blocked
system.cpu7.dcache.blocked_cycles::no_targets       164570                       # number of cycles access was blocked
system.cpu7.dcache.blocked::no_mshrs             3256                       # number of cycles access was blocked
system.cpu7.dcache.blocked::no_targets           1094                       # number of cycles access was blocked
system.cpu7.dcache.avg_blocked_cycles::no_mshrs    94.830774                       # average number of cycles each access was blocked
system.cpu7.dcache.avg_blocked_cycles::no_targets   150.429616                       # average number of cycles each access was blocked
system.cpu7.dcache.fast_writes                      0                       # number of fast writes performed
system.cpu7.dcache.cache_copies                     0                       # number of cache copies performed
system.cpu7.dcache.writebacks::writebacks        15173                       # number of writebacks
system.cpu7.dcache.writebacks::total            15173                       # number of writebacks
system.cpu7.dcache.ReadReq_mshr_hits::switch_cpus7.data         5812                       # number of ReadReq MSHR hits
system.cpu7.dcache.ReadReq_mshr_hits::total         5812                       # number of ReadReq MSHR hits
system.cpu7.dcache.WriteReq_mshr_hits::switch_cpus7.data        18864                       # number of WriteReq MSHR hits
system.cpu7.dcache.WriteReq_mshr_hits::total        18864                       # number of WriteReq MSHR hits
system.cpu7.dcache.LoadLockedReq_mshr_hits::switch_cpus7.data          129                       # number of LoadLockedReq MSHR hits
system.cpu7.dcache.LoadLockedReq_mshr_hits::total          129                       # number of LoadLockedReq MSHR hits
system.cpu7.dcache.demand_mshr_hits::switch_cpus7.data        24676                       # number of demand (read+write) MSHR hits
system.cpu7.dcache.demand_mshr_hits::total        24676                       # number of demand (read+write) MSHR hits
system.cpu7.dcache.overall_mshr_hits::switch_cpus7.data        24676                       # number of overall MSHR hits
system.cpu7.dcache.overall_mshr_hits::total        24676                       # number of overall MSHR hits
system.cpu7.dcache.ReadReq_mshr_misses::switch_cpus7.data        15521                       # number of ReadReq MSHR misses
system.cpu7.dcache.ReadReq_mshr_misses::total        15521                       # number of ReadReq MSHR misses
system.cpu7.dcache.WriteReq_mshr_misses::switch_cpus7.data        15654                       # number of WriteReq MSHR misses
system.cpu7.dcache.WriteReq_mshr_misses::total        15654                       # number of WriteReq MSHR misses
system.cpu7.dcache.SoftPFReq_mshr_misses::switch_cpus7.data         1023                       # number of SoftPFReq MSHR misses
system.cpu7.dcache.SoftPFReq_mshr_misses::total         1023                       # number of SoftPFReq MSHR misses
system.cpu7.dcache.LoadLockedReq_mshr_misses::switch_cpus7.data          348                       # number of LoadLockedReq MSHR misses
system.cpu7.dcache.LoadLockedReq_mshr_misses::total          348                       # number of LoadLockedReq MSHR misses
system.cpu7.dcache.StoreCondReq_mshr_misses::switch_cpus7.data          955                       # number of StoreCondReq MSHR misses
system.cpu7.dcache.StoreCondReq_mshr_misses::total          955                       # number of StoreCondReq MSHR misses
system.cpu7.dcache.demand_mshr_misses::switch_cpus7.data        31175                       # number of demand (read+write) MSHR misses
system.cpu7.dcache.demand_mshr_misses::total        31175                       # number of demand (read+write) MSHR misses
system.cpu7.dcache.overall_mshr_misses::switch_cpus7.data        32198                       # number of overall MSHR misses
system.cpu7.dcache.overall_mshr_misses::total        32198                       # number of overall MSHR misses
system.cpu7.dcache.ReadReq_mshr_miss_latency::switch_cpus7.data    667214238                       # number of ReadReq MSHR miss cycles
system.cpu7.dcache.ReadReq_mshr_miss_latency::total    667214238                       # number of ReadReq MSHR miss cycles
system.cpu7.dcache.WriteReq_mshr_miss_latency::switch_cpus7.data   2270755729                       # number of WriteReq MSHR miss cycles
system.cpu7.dcache.WriteReq_mshr_miss_latency::total   2270755729                       # number of WriteReq MSHR miss cycles
system.cpu7.dcache.SoftPFReq_mshr_miss_latency::switch_cpus7.data     87012753                       # number of SoftPFReq MSHR miss cycles
system.cpu7.dcache.SoftPFReq_mshr_miss_latency::total     87012753                       # number of SoftPFReq MSHR miss cycles
system.cpu7.dcache.LoadLockedReq_mshr_miss_latency::switch_cpus7.data     12249500                       # number of LoadLockedReq MSHR miss cycles
system.cpu7.dcache.LoadLockedReq_mshr_miss_latency::total     12249500                       # number of LoadLockedReq MSHR miss cycles
system.cpu7.dcache.StoreCondReq_mshr_miss_latency::switch_cpus7.data      3852501                       # number of StoreCondReq MSHR miss cycles
system.cpu7.dcache.StoreCondReq_mshr_miss_latency::total      3852501                       # number of StoreCondReq MSHR miss cycles
system.cpu7.dcache.StoreCondFailReq_mshr_miss_latency::switch_cpus7.data       132500                       # number of StoreCondFailReq MSHR miss cycles
system.cpu7.dcache.StoreCondFailReq_mshr_miss_latency::total       132500                       # number of StoreCondFailReq MSHR miss cycles
system.cpu7.dcache.demand_mshr_miss_latency::switch_cpus7.data   2937969967                       # number of demand (read+write) MSHR miss cycles
system.cpu7.dcache.demand_mshr_miss_latency::total   2937969967                       # number of demand (read+write) MSHR miss cycles
system.cpu7.dcache.overall_mshr_miss_latency::switch_cpus7.data   3024982720                       # number of overall MSHR miss cycles
system.cpu7.dcache.overall_mshr_miss_latency::total   3024982720                       # number of overall MSHR miss cycles
system.cpu7.dcache.ReadReq_mshr_uncacheable_latency::switch_cpus7.data       865499                       # number of ReadReq MSHR uncacheable cycles
system.cpu7.dcache.ReadReq_mshr_uncacheable_latency::total       865499                       # number of ReadReq MSHR uncacheable cycles
system.cpu7.dcache.WriteReq_mshr_uncacheable_latency::switch_cpus7.data       475498                       # number of WriteReq MSHR uncacheable cycles
system.cpu7.dcache.WriteReq_mshr_uncacheable_latency::total       475498                       # number of WriteReq MSHR uncacheable cycles
system.cpu7.dcache.overall_mshr_uncacheable_latency::switch_cpus7.data      1340997                       # number of overall MSHR uncacheable cycles
system.cpu7.dcache.overall_mshr_uncacheable_latency::total      1340997                       # number of overall MSHR uncacheable cycles
system.cpu7.dcache.ReadReq_mshr_miss_rate::switch_cpus7.data     0.002914                       # mshr miss rate for ReadReq accesses
system.cpu7.dcache.ReadReq_mshr_miss_rate::total     0.002914                       # mshr miss rate for ReadReq accesses
system.cpu7.dcache.WriteReq_mshr_miss_rate::switch_cpus7.data     0.004888                       # mshr miss rate for WriteReq accesses
system.cpu7.dcache.WriteReq_mshr_miss_rate::total     0.004888                       # mshr miss rate for WriteReq accesses
system.cpu7.dcache.SoftPFReq_mshr_miss_rate::switch_cpus7.data     0.906112                       # mshr miss rate for SoftPFReq accesses
system.cpu7.dcache.SoftPFReq_mshr_miss_rate::total     0.906112                       # mshr miss rate for SoftPFReq accesses
system.cpu7.dcache.LoadLockedReq_mshr_miss_rate::switch_cpus7.data     0.007137                       # mshr miss rate for LoadLockedReq accesses
system.cpu7.dcache.LoadLockedReq_mshr_miss_rate::total     0.007137                       # mshr miss rate for LoadLockedReq accesses
system.cpu7.dcache.StoreCondReq_mshr_miss_rate::switch_cpus7.data     0.019608                       # mshr miss rate for StoreCondReq accesses
system.cpu7.dcache.StoreCondReq_mshr_miss_rate::total     0.019608                       # mshr miss rate for StoreCondReq accesses
system.cpu7.dcache.demand_mshr_miss_rate::switch_cpus7.data     0.003655                       # mshr miss rate for demand accesses
system.cpu7.dcache.demand_mshr_miss_rate::total     0.003655                       # mshr miss rate for demand accesses
system.cpu7.dcache.overall_mshr_miss_rate::switch_cpus7.data     0.003775                       # mshr miss rate for overall accesses
system.cpu7.dcache.overall_mshr_miss_rate::total     0.003775                       # mshr miss rate for overall accesses
system.cpu7.dcache.ReadReq_avg_mshr_miss_latency::switch_cpus7.data 42987.838284                       # average ReadReq mshr miss latency
system.cpu7.dcache.ReadReq_avg_mshr_miss_latency::total 42987.838284                       # average ReadReq mshr miss latency
system.cpu7.dcache.WriteReq_avg_mshr_miss_latency::switch_cpus7.data 145059.136898                       # average WriteReq mshr miss latency
system.cpu7.dcache.WriteReq_avg_mshr_miss_latency::total 145059.136898                       # average WriteReq mshr miss latency
system.cpu7.dcache.SoftPFReq_avg_mshr_miss_latency::switch_cpus7.data 85056.454545                       # average SoftPFReq mshr miss latency
system.cpu7.dcache.SoftPFReq_avg_mshr_miss_latency::total 85056.454545                       # average SoftPFReq mshr miss latency
system.cpu7.dcache.LoadLockedReq_avg_mshr_miss_latency::switch_cpus7.data 35199.712644                       # average LoadLockedReq mshr miss latency
system.cpu7.dcache.LoadLockedReq_avg_mshr_miss_latency::total 35199.712644                       # average LoadLockedReq mshr miss latency
system.cpu7.dcache.StoreCondReq_avg_mshr_miss_latency::switch_cpus7.data  4034.032461                       # average StoreCondReq mshr miss latency
system.cpu7.dcache.StoreCondReq_avg_mshr_miss_latency::total  4034.032461                       # average StoreCondReq mshr miss latency
system.cpu7.dcache.StoreCondFailReq_avg_mshr_miss_latency::switch_cpus7.data          inf                       # average StoreCondFailReq mshr miss latency
system.cpu7.dcache.StoreCondFailReq_avg_mshr_miss_latency::total          inf                       # average StoreCondFailReq mshr miss latency
system.cpu7.dcache.demand_avg_mshr_miss_latency::switch_cpus7.data 94241.217867                       # average overall mshr miss latency
system.cpu7.dcache.demand_avg_mshr_miss_latency::total 94241.217867                       # average overall mshr miss latency
system.cpu7.dcache.overall_avg_mshr_miss_latency::switch_cpus7.data 93949.398099                       # average overall mshr miss latency
system.cpu7.dcache.overall_avg_mshr_miss_latency::total 93949.398099                       # average overall mshr miss latency
system.cpu7.dcache.ReadReq_avg_mshr_uncacheable_latency::switch_cpus7.data          inf                       # average ReadReq mshr uncacheable latency
system.cpu7.dcache.ReadReq_avg_mshr_uncacheable_latency::total          inf                       # average ReadReq mshr uncacheable latency
system.cpu7.dcache.WriteReq_avg_mshr_uncacheable_latency::switch_cpus7.data          inf                       # average WriteReq mshr uncacheable latency
system.cpu7.dcache.WriteReq_avg_mshr_uncacheable_latency::total          inf                       # average WriteReq mshr uncacheable latency
system.cpu7.dcache.overall_avg_mshr_uncacheable_latency::switch_cpus7.data          inf                       # average overall mshr uncacheable latency
system.cpu7.dcache.overall_avg_mshr_uncacheable_latency::total          inf                       # average overall mshr uncacheable latency
system.cpu7.dcache.no_allocate_misses               0                       # Number of misses that were no-allocate
system.iocache.tags.replacements                    0                       # number of replacements
system.iocache.tags.tagsinuse                       0                       # Cycle average of tags in use
system.iocache.tags.total_refs                      0                       # Total number of references to valid blocks.
system.iocache.tags.sampled_refs                    0                       # Sample count of references to valid blocks.
system.iocache.tags.avg_refs                      nan                       # Average number of references to valid blocks.
system.iocache.tags.warmup_cycle                    0                       # Cycle when the warmup percentage was hit.
system.iocache.tags.tag_accesses                    0                       # Number of tag accesses
system.iocache.tags.data_accesses                   0                       # Number of data accesses
system.iocache.blocked_cycles::no_mshrs             0                       # number of cycles access was blocked
system.iocache.blocked_cycles::no_targets            0                       # number of cycles access was blocked
system.iocache.blocked::no_mshrs                    0                       # number of cycles access was blocked
system.iocache.blocked::no_targets                  0                       # number of cycles access was blocked
system.iocache.avg_blocked_cycles::no_mshrs          nan                       # average number of cycles each access was blocked
system.iocache.avg_blocked_cycles::no_targets          nan                       # average number of cycles each access was blocked
system.iocache.fast_writes                          0                       # number of fast writes performed
system.iocache.cache_copies                         0                       # number of cache copies performed
system.iocache.no_allocate_misses                   0                       # Number of misses that were no-allocate
system.switch_cpus0.kern.inst.arm                   0                       # number of arm instructions executed
system.switch_cpus0.kern.inst.quiesce               0                       # number of quiesce instructions executed
system.switch_cpus1.kern.inst.arm                   0                       # number of arm instructions executed
system.switch_cpus1.kern.inst.quiesce               0                       # number of quiesce instructions executed
system.switch_cpus2.kern.inst.arm                   0                       # number of arm instructions executed
system.switch_cpus2.kern.inst.quiesce               0                       # number of quiesce instructions executed
system.switch_cpus3.kern.inst.arm                   0                       # number of arm instructions executed
system.switch_cpus3.kern.inst.quiesce               0                       # number of quiesce instructions executed
system.switch_cpus4.kern.inst.arm                   0                       # number of arm instructions executed
system.switch_cpus4.kern.inst.quiesce               0                       # number of quiesce instructions executed
system.switch_cpus5.kern.inst.arm                   0                       # number of arm instructions executed
system.switch_cpus5.kern.inst.quiesce               0                       # number of quiesce instructions executed
system.switch_cpus6.kern.inst.arm                   0                       # number of arm instructions executed
system.switch_cpus6.kern.inst.quiesce               0                       # number of quiesce instructions executed
system.switch_cpus7.kern.inst.arm                   0                       # number of arm instructions executed
system.switch_cpus7.kern.inst.quiesce               0                       # number of quiesce instructions executed

---------- End Simulation Statistics   ----------
